<?xml version="1.0" encoding="UTF-8"?>

<!-- generated on Mo 06 Mai 2019 15:48:51 CEST by Eclipse SUMO netedit Version v1_1_0+1526-08c2293b1a
<configuration xmlns:xsi="http://www.w3.org/2001/XMLSchema-instance" xsi:noNamespaceSchemaLocation="http://sumo.dlr.de/xsd/netconvertConfiguration.xsd">

    <input>
        <sumo-net-file value="tcross.net.xml"/>
    </input>

    <output>
        <output-file value="tcross.net.xml"/>
    </output>

    <processing>
        <geometry.max-grade.fix value="false"/>
        <offset.disable-normalization value="true"/>
        <lefthand value="false"/>
    </processing>

    <junctions>
        <no-turnarounds value="true"/>
        <junctions.corner-detail value="5"/>
        <junctions.limit-turn-speed value="5.5"/>
        <rectangular-lane-cut value="false"/>
    </junctions>

    <pedestrian>
        <walkingareas value="false"/>
    </pedestrian>

    <netedit>
        <additional-files value="/home/peter/master/sumo/config/tcross/detector.add.xml"/>
    </netedit>

</configuration>
-->

<additional xmlns:xsi="http://www.w3.org/2001/XMLSchema-instance" xsi:noNamespaceSchemaLocation="https://sumo.dlr.de/xsd/additional_file.xsd">
    <e1Detector file="detector.out.xml" freq="1" friendlyPos="x" id="e1det_n1_n2_0" lane="n1_n2_0" pos="36.3"/>
    <e1Detector file="detector.out.xml" freq="1" friendlyPos="x" id="e1det_n1_n2_1" lane="n1_n2_1" pos="36.3"/>
    <e1Detector file="detector.out.xml" freq="1" friendlyPos="x" id="e1det_n20_n2_0" lane="n20_n2_0" pos="40.3"/>
    <e1Detector file="detector.out.xml" freq="1" friendlyPos="x" id="e1det_n3_n2_0" lane="n3_n2_0" pos="36.3"/>
</additional>

