<?xml version="1.0" encoding="iso-8859-1"?>
<configuration xmlns:xsi="http://www.w3.org/2001/XMLSchema-instance"
 xsi:noNamespaceSchemaLocation="http://sumo.dlr.de/xsd/sumoConfiguration.xsd">
    <input>
        <net-file value="tcross.net.xml"/>
        <route-files value="trips.trips.xml"/>
	<additional-files value="detector.add.xml,tls.add.xml"/>
    </input>
    
    <time-to-teleport value="-1"/>
</configuration>

