<?xml version="1.0" encoding="UTF-8"?>

<routes xmlns:xsi="http://www.w3.org/2001/XMLSchema-instance" xsi:noNamespaceSchemaLocation="http://sumo.dlr.de/xsd/routes_file.xsd">
    <vTypeDistribution id="passenger">
	<vType id="passenger#0" probability="0.25" width="1.8" length="4.3" maxSpeed="50" guiShape="passenger/sedan" minGap="2.5" accel="2.9" decel="4.5" height="1.5"/>
	<vType id="passenger#1" probability="0.25" width="1.8" length="4.3" maxSpeed="50" guiShape="passenger/hatchback" minGap="2.5" accel="2.9" decel="4.5" height="1.5"/>
	<vType id="passenger#2" probability="0.20" width="1.8" length="4.3" maxSpeed="50" guiShape="passenger/wagon" minGap="2.5" accel="2.9" decel="4.5" height="1.5"/>
	<vType id="passenger#3" probability="0.15" width="1.9" length="4.7" maxSpeed="50" guiShape="passenger/van" minGap="2.5" accel="2.9" decel="4.5" height="1.73"/>
	<vType id="passenger#4" probability="0.15" width="2.16" length="6.5" maxSpeed="50" guiShape="delivery" minGap="2.5" accel="2.9" decel="4.5" height="2.86"/>
    </vTypeDistribution>

    <vTypeDistribution id="motorcycle">
	<vType id="motorcycle#0" probability="0.15" width="1.8" length="2.2" maxSpeed="50" guiShape="motorcycle" minGap="2.5" accel="6" decel="4.5" height="1.5"/>
    </vTypeDistribution>


	<route id="" edges="" />

	<vehicle id="" type="" route="" depart=""/>



</routes>
