<additional xmlns:xsi="http://www.w3.org/2001/XMLSchema-instance" xsi:noNamespaceSchemaLocation="https://sumo.dlr.de/xsd/additional_file.xsd">
    <e1Detector file="${host}:${port}" freq="1" friendlyPos="x" id="e1det_n1_n2_0" lane="n1_n2_0" pos="36.3"/>
    <e1Detector file="${host}:${port}" freq="1" friendlyPos="x" id="e1det_n1_n2_1" lane="n1_n2_1" pos="36.3"/>
    <e1Detector file="${host}:${port}" freq="1" friendlyPos="x" id="e1det_n20_n2_0" lane="n20_n2_0" pos="40.3"/>
    <e1Detector file="${host}:${port}" freq="1" friendlyPos="x" id="e1det_n3_n2_0" lane="n3_n2_0" pos="36.3"/>
</additional>
