<?xml version="1.0" encoding="UTF-8"?>

<routes xmlns:xsi="http://www.w3.org/2001/XMLSchema-instance" xsi:noNamespaceSchemaLocation="http://sumo.dlr.de/xsd/routes_file.xsd">
    <vTypeDistribution id="passenger">
	<vType id="passenger#0" probability="0.25" width="1.8" length="4.3" maxSpeed="50" guiShape="passenger/sedan" minGap="2.5" accel="2.9" decel="4.5" height="1.5"/>
	<vType id="passenger#1" probability="0.25" width="1.8" length="4.3" maxSpeed="50" guiShape="passenger/hatchback" minGap="2.5" accel="2.9" decel="4.5" height="1.5"/>
	<vType id="passenger#2" probability="0.20" width="1.8" length="4.3" maxSpeed="50" guiShape="passenger/wagon" minGap="2.5" accel="2.9" decel="4.5" height="1.5"/>
	<vType id="passenger#3" probability="0.15" width="1.9" length="4.7" maxSpeed="50" guiShape="passenger/van" minGap="2.5" accel="2.9" decel="4.5" height="1.73"/>
	<vType id="passenger#4" probability="0.15" width="2.16" length="6.5" maxSpeed="50" guiShape="delivery" minGap="2.5" accel="2.9" decel="4.5" height="2.86"/>
    </vTypeDistribution>

    <vTypeDistribution id="motorcycle">
	<vType id="motorcycle#0" probability="0.15" width="1.8" length="2.2" maxSpeed="50" guiShape="motorcycle" minGap="2.5" accel="6" decel="4.5" height="1.5"/>
    </vTypeDistribution>


	<!-- from north to south -->
	<route id="n6_n02" edges="n6_n5 n5_n4 n4_n3 n3_n2 n2_n1 n1_n0 n0_n01 n01_n02" />
	
	<!-- from south to north -->
	<route id="n02_n6" edges="n02_n01 n01_n0 n0_n1 n1_n2 n2_n3 n3_n4 n4_n5 n5_n6" />
	
	<!-- from south to west -->
	<route id="n02_n20" edges="n02_n01 n01_n0 n0_n1 n1_n2 n2_n20" />
	
	<!-- from north to west -->	
	<route id="n6_n20" edges="n6_n5 n5_n4 n4_n3 n3_n2 n2_n20" />

	<!-- from west to north -->
	<route id="n20_n6" edges="n20_n2 n2_n3 n3_n4 n4_n5 n5_n6" />

	<!-- from west to south -->
	<route id="n20_n02" edges="n20_n2 n2_n1 n1_n0 n0_n01 n01_n02" />



	<vehicle id="0" type="passenger" route="n6_n02" depart="0"/>
	<vehicle id="1" type="passenger" route="n6_n02" depart="0"/>
	<vehicle id="2" type="passenger" route="n6_n02" depart="0"/>
	<vehicle id="3" type="passenger" route="n6_n02" depart="0"/>
	<vehicle id="4" type="passenger" route="n6_n02" depart="0"/>
	<vehicle id="5" type="passenger" route="n02_n6" depart="0"/>
	<vehicle id="6" type="passenger" route="n02_n6" depart="0"/>
	<vehicle id="7" type="passenger" route="n02_n6" depart="0"/>
	<vehicle id="8" type="passenger" route="n02_n6" depart="0"/>
	<vehicle id="9" type="passenger" route="n02_n6" depart="0"/>
	<vehicle id="10" type="passenger" route="n02_n6" depart="0"/>
	<vehicle id="11" type="passenger" route="n02_n6" depart="0"/>
	<vehicle id="12" type="passenger" route="n02_n6" depart="0"/>
	<vehicle id="13" type="motorcycle" route="n02_n6" depart="1"/>
	<vehicle id="14" type="passenger" route="n02_n6" depart="1"/>
	<vehicle id="15" type="passenger" route="n02_n6" depart="1"/>
	<vehicle id="16" type="passenger" route="n02_n6" depart="1"/>
	<vehicle id="17" type="passenger" route="n02_n6" depart="1"/>
	<vehicle id="18" type="passenger" route="n02_n6" depart="1"/>
	<vehicle id="19" type="passenger" route="n02_n6" depart="1"/>
	<vehicle id="20" type="passenger" route="n02_n6" depart="1"/>
	<vehicle id="21" type="passenger" route="n02_n6" depart="1"/>
	<vehicle id="22" type="passenger" route="n02_n6" depart="1"/>
	<vehicle id="23" type="passenger" route="n02_n6" depart="1"/>
	<vehicle id="24" type="passenger" route="n02_n6" depart="1"/>
	<vehicle id="25" type="passenger" route="n02_n6" depart="1"/>
	<vehicle id="26" type="passenger" route="n02_n6" depart="1"/>
	<vehicle id="27" type="passenger" route="n02_n6" depart="1"/>
	<vehicle id="28" type="passenger" route="n02_n6" depart="1"/>
	<vehicle id="29" type="passenger" route="n02_n6" depart="1"/>
	<vehicle id="30" type="passenger" route="n02_n6" depart="1"/>
	<vehicle id="31" type="passenger" route="n02_n6" depart="1"/>
	<vehicle id="32" type="passenger" route="n6_n02" depart="5"/>
	<vehicle id="33" type="passenger" route="n02_n6" depart="5"/>
	<vehicle id="34" type="passenger" route="n6_n02" depart="10"/>
	<vehicle id="35" type="passenger" route="n02_n6" depart="10"/>
	<vehicle id="36" type="passenger" route="n6_n02" depart="10"/>
	<vehicle id="37" type="passenger" route="n02_n6" depart="10"/>
	<vehicle id="38" type="passenger" route="n6_n02" depart="10"/>
	<vehicle id="39" type="passenger" route="n02_n6" depart="10"/>
	<vehicle id="40" type="passenger" route="n6_n02" depart="10"/>
	<vehicle id="41" type="passenger" route="n02_n6" depart="20"/>
	<vehicle id="42" type="passenger" route="n6_n02" depart="20"/>
	<vehicle id="43" type="passenger" route="n02_n6" depart="20"/>
	<vehicle id="44" type="motorcycle" route="n6_n02" depart="20"/>
	<vehicle id="45" type="passenger" route="n02_n6" depart="20"/>
	<vehicle id="46" type="passenger" route="n6_n02" depart="20"/>
	<vehicle id="47" type="passenger" route="n02_n6" depart="20"/>
	<vehicle id="48" type="passenger" route="n6_n02" depart="50"/>
	<vehicle id="49" type="passenger" route="n02_n6" depart="50"/>
	<vehicle id="50" type="passenger" route="n6_n02" depart="50"/>
	<vehicle id="51" type="passenger" route="n02_n6" depart="50"/>
	<vehicle id="52" type="passenger" route="n6_n02" depart="50"/>
	<vehicle id="53" type="passenger" route="n02_n6" depart="50"/>
	<vehicle id="54" type="passenger" route="n6_n02" depart="50"/>
	<vehicle id="55" type="passenger" route="n02_n6" depart="50"/>
	<vehicle id="56" type="passenger" route="n6_n02" depart="50"/>

	<vehicle id="w0" type="passenger" route="n20_n02" depart="50"/>
	<vehicle id="w1" type="passenger" route="n20_n6" depart="50"/>

	<vehicle id="57" type="passenger" route="n02_n6" depart="60"/>
	<vehicle id="58" type="passenger" route="n6_n02" depart="60"/>
	<vehicle id="59" type="passenger" route="n02_n6" depart="60"/>
	<vehicle id="60" type="passenger" route="n6_n02" depart="60"/>
	<vehicle id="61" type="passenger" route="n02_n6" depart="60"/>
	<vehicle id="62" type="passenger" route="n6_n02" depart="60"/>
	<vehicle id="63" type="passenger" route="n02_n6" depart="60"/>
	<vehicle id="64" type="passenger" route="n6_n02" depart="60"/>
	<vehicle id="65" type="passenger" route="n02_n6" depart="60"/>

	<vehicle id="w2" type="passenger" route="n20_n02" depart="70"/>
	<vehicle id="w3" type="passenger" route="n20_n02" depart="75"/>
	<vehicle id="w4" type="passenger" route="n20_n02" depart="90"/>
	<vehicle id="w5" type="passenger" route="n20_n02" depart="110"/>
	<vehicle id="w6" type="passenger" route="n20_n6" depart="120"/>
	<vehicle id="w7" type="passenger" route="n20_n02" depart="140"/>
	<vehicle id="w8" type="passenger" route="n20_n6" depart="150"/>
	<vehicle id="w9" type="passenger" route="n20_n02" depart="180"/>
	<vehicle id="w10" type="passenger" route="n20_n6" depart="210"/>
	<vehicle id="w11" type="passenger" route="n20_n02" depart="220"/>
	<vehicle id="w12" type="passenger" route="n20_n6" depart="260"/>


</routes>
