<additional>
	<tlLogic id="n2" type="static" programID="n3_n2" offset="0">
		<phase duration="60" state="GGGrrr" />
	</tlLogic>
	<tlLogic id="n2" type="static" programID="n1_n2" offset="0">
		<phase duration="60" state="rrGGrr" />
	</tlLogic>
	<tlLogic id="n2" type="static" programID="n20_n2" offset="0">
		<phase duration="60" state="rrrrGG" />
	</tlLogic>
 	<timedEvent type="SaveTLSStates" source="n2" dest="${host}:${port}"/> 
</additional>
