<additional>
	<tlLogic id="n2" type="static" programID="n3_n2" offset="0">
<!-- 		<phase duration="3" state="rryyyyy" /> -->
		<phase duration="60" state="GGGGrrr" />
<!-- 		<phase duration="3" state="yyyyrrr" /> -->
	</tlLogic>
	<tlLogic id="n2" type="static" programID="n1_n2" offset="0">
<!-- 		<phase duration="3" state="yyrrryy" /> -->
		<phase duration="60" state="rrGGGrr" />
<!-- 		<phase duration="3" state="rryyyrr" /> -->
	</tlLogic>
	<tlLogic id="n2" type="static" programID="n20_n2" offset="0">
<!-- 		<phase duration="3" state="yyyyyrr" /> -->
		<phase duration="60" state="rrGrrGG" />
<!-- 		<phase duration="3" state="rryrryy" /> -->
	</tlLogic>
 	<timedEvent type="SaveTLSStates" source="n2" dest="${host}:${port}"/> 
</additional>
