<?xml version="1.0" encoding="UTF-8"?>

<routes xmlns:xsi="http://www.w3.org/2001/XMLSchema-instance"
	xsi:noNamespaceSchemaLocation="http://sumo.dlr.de/xsd/routes_file.xsd">

	<vTypeDistribution id="passenger">
		<vType id="passenger#0" probability="0.25" width="1.8"
			length="4.3" maxSpeed="50" guiShape="passenger/sedan" minGap="2.5"
			accel="2.9" decel="4.5" height="1.5" />
		<vType id="passenger#1" probability="0.25" width="1.8"
			length="4.3" maxSpeed="50" guiShape="passenger/hatchback"
			minGap="2.5" accel="2.9" decel="4.5" height="1.5" />
		<vType id="passenger#2" probability="0.20" width="1.8"
			length="4.3" maxSpeed="50" guiShape="passenger/wagon" minGap="2.5"
			accel="2.9" decel="4.5" height="1.5" />
		<vType id="passenger#3" probability="0.15" width="1.9"
			length="4.7" maxSpeed="50" guiShape="passenger/van" minGap="2.5"
			accel="2.9" decel="4.5" height="1.73" />
		<vType id="passenger#4" probability="0.15" width="2.16"
			length="6.5" maxSpeed="50" guiShape="delivery" minGap="2.5"
			accel="2.9" decel="4.5" height="2.86" />
	</vTypeDistribution>

	<vTypeDistribution id="motorcycle">
		<vType id="motorcycle#0" probability="0.15" width="1.8"
			length="2.2" maxSpeed="50" guiShape="motorcycle" minGap="2.5"
			accel="6" decel="4.5" height="1.5" />
	</vTypeDistribution>


	<route id="n0_n1" edges="n0_n4 n4_n1" />
	<route id="n0_n2" edges="n0_n4 n4_n2" />
	<route id="n0_n3" edges="n0_n4 n4_n3" />

	<route id="n1_n0" edges="n1_n4 n4_n0" />
	<route id="n1_n2" edges="n1_n4 n4_n2" />
	<route id="n1_n3" edges="n1_n4 n4_n3" />

	<route id="n2_n0" edges="n2_n4 n4_n0" />
	<route id="n2_n1" edges="n2_n4 n4_n1" />
	<route id="n2_n3" edges="n2_n4 n4_n3" />

	<route id="n3_n0" edges="n3_n4 n4_n0" />
	<route id="n3_n1" edges="n3_n4 n4_n1" />
	<route id="n3_n2" edges="n3_n4 n4_n2" />

	<vehicle id="v0" type="passenger" route="n0_n1" depart="0" />
	<vehicle id="v1" type="passenger" route="n0_n1" depart="1" />
	<vehicle id="v2" type="passenger" route="n0_n2" depart="2" />
	<vehicle id="v3" type="passenger" route="n0_n3" depart="3" />
	<vehicle id="v4" type="passenger" route="n0_n2" depart="4" />
	<vehicle id="v5" type="passenger" route="n0_n1" depart="5" />
	<vehicle id="v6" type="passenger" route="n0_n2" depart="6" />
	<vehicle id="v7" type="passenger" route="n0_n2" depart="7" />
	<vehicle id="v8" type="passenger" route="n0_n2" depart="8" />
	<vehicle id="v9" type="passenger" route="n0_n2" depart="9" />
	<vehicle id="v10" type="passenger" route="n0_n1" depart="10" />
	<vehicle id="v11" type="passenger" route="n0_n3" depart="11" />
	<vehicle id="v12" type="passenger" route="n0_n3" depart="12" />
	<vehicle id="v13" type="passenger" route="n0_n2" depart="13" />
	<vehicle id="v14" type="passenger" route="n0_n2" depart="14" />
	<vehicle id="v15" type="passenger" route="n0_n3" depart="15" />
	<vehicle id="v16" type="passenger" route="n0_n2" depart="16" />
	<vehicle id="v17" type="passenger" route="n0_n3" depart="17" />
	<vehicle id="v18" type="passenger" route="n0_n1" depart="18" />
	<vehicle id="v19" type="passenger" route="n0_n3" depart="19" />
	<vehicle id="v20" type="passenger" route="n0_n2" depart="20" />
	<vehicle id="v21" type="passenger" route="n0_n1" depart="21" />
	<vehicle id="v22" type="passenger" route="n0_n2" depart="22" />
	<vehicle id="v23" type="passenger" route="n0_n2" depart="23" />
	<vehicle id="v24" type="passenger" route="n0_n1" depart="24" />
	<vehicle id="v25" type="passenger" route="n0_n3" depart="25" />
	<vehicle id="v26" type="passenger" route="n0_n1" depart="26" />
	<vehicle id="v27" type="passenger" route="n0_n3" depart="27" />
	<vehicle id="v28" type="passenger" route="n0_n2" depart="28" />
	<vehicle id="v29" type="passenger" route="n0_n3" depart="29" />
	<vehicle id="v30" type="passenger" route="n0_n2" depart="30" />
	<vehicle id="v31" type="passenger" route="n0_n1" depart="31" />


	<vehicle id="v311" type="passenger" route="n1_n0" depart="31" />
	<vehicle id="v312" type="passenger" route="n1_n2" depart="31" />
	<vehicle id="v313" type="passenger" route="n1_n3" depart="31" />


	<vehicle id="v32" type="passenger" route="n0_n1" depart="32" />
	<vehicle id="v33" type="passenger" route="n0_n2" depart="33" />
	<vehicle id="v34" type="passenger" route="n0_n3" depart="34" />
	<vehicle id="v35" type="passenger" route="n0_n1" depart="35" />
	<vehicle id="v36" type="passenger" route="n0_n1" depart="36" />


	<vehicle id="v363" type="passenger" route="n1_n3" depart="36" />
	<vehicle id="v361" type="passenger" route="n1_n0" depart="36" />
	<vehicle id="v362" type="passenger" route="n1_n2" depart="36" />


	<vehicle id="v37" type="passenger" route="n0_n3" depart="37" />
	<vehicle id="v38" type="passenger" route="n0_n1" depart="38" />
	<vehicle id="v39" type="passenger" route="n0_n3" depart="39" />
	<vehicle id="v40" type="passenger" route="n0_n2" depart="40" />
	<vehicle id="v41" type="passenger" route="n0_n2" depart="41" />
	<vehicle id="v42" type="passenger" route="n0_n3" depart="42" />
	<vehicle id="v43" type="passenger" route="n0_n2" depart="43" />
	<vehicle id="v44" type="passenger" route="n0_n3" depart="44" />
	<vehicle id="v45" type="passenger" route="n0_n3" depart="45" />
	<vehicle id="v46" type="passenger" route="n0_n2" depart="46" />


</routes>
