<?xml version="1.0" encoding="UTF-8"?>

<!-- generated on Mi 04 Sep 2019 17:29:38 CEST by Eclipse SUMO netedit Version v1_1_0+1526-08c2293b1a
<configuration xmlns:xsi="http://www.w3.org/2001/XMLSchema-instance" xsi:noNamespaceSchemaLocation="http://sumo.dlr.de/xsd/netconvertConfiguration.xsd">

    <input>
        <sumo-net-file value="single-big-junction.net.xml"/>
    </input>

    <output>
        <output-file value="single-big-junction.net.xml"/>
    </output>

    <processing>
        <geometry.max-grade.fix value="false"/>
        <offset.disable-normalization value="true"/>
        <lefthand value="false"/>
    </processing>

    <junctions>
        <no-turnarounds value="true"/>
        <junctions.corner-detail value="5"/>
        <junctions.limit-turn-speed value="5.5"/>
        <rectangular-lane-cut value="false"/>
    </junctions>

    <pedestrian>
        <walkingareas value="false"/>
    </pedestrian>

</configuration>
-->

<net version="1.1" junctionCornerDetail="5" limitTurnSpeed="5.50" xmlns:xsi="http://www.w3.org/2001/XMLSchema-instance" xsi:noNamespaceSchemaLocation="http://sumo.dlr.de/xsd/net_file.xsd">

    <location netOffset="0.00,0.00" convBoundary="-250.00,-250.00,250.00,250.00" origBoundary="-10000000000.00,-10000000000.00,10000000000.00,10000000000.00" projParameter="!"/>

    <edge id=":n4_0" function="internal">
        <lane id=":n4_0_0" index="0" speed="6.51" length="9.03" shape="-8.00,13.60 -8.35,11.15 -9.40,9.40 -11.15,8.35 -13.60,8.00"/>
    </edge>
    <edge id=":n4_1" function="internal">
        <lane id=":n4_1_0" index="0" speed="13.89" length="27.20" shape="-8.00,13.60 -8.00,-13.60"/>
        <lane id=":n4_1_1" index="1" speed="13.89" length="27.20" shape="-4.80,13.60 -4.80,-13.60"/>
    </edge>
    <edge id=":n4_3" function="internal">
        <lane id=":n4_3_0" index="0" speed="10.36" length="13.42" shape="-1.60,13.60 -0.65,6.95 2.20,2.20 3.20,1.60"/>
    </edge>
    <edge id=":n4_16" function="internal">
        <lane id=":n4_16_0" index="0" speed="10.36" length="11.09" shape="3.20,1.60 6.95,-0.65 13.60,-1.60"/>
    </edge>
    <edge id=":n4_4" function="internal">
        <lane id=":n4_4_0" index="0" speed="6.51" length="9.03" shape="13.60,8.00 11.15,8.35 9.40,9.40 8.35,11.15 8.00,13.60"/>
    </edge>
    <edge id=":n4_5" function="internal">
        <lane id=":n4_5_0" index="0" speed="13.89" length="27.20" shape="13.60,8.00 -13.60,8.00"/>
        <lane id=":n4_5_1" index="1" speed="13.89" length="27.20" shape="13.60,4.80 -13.60,4.80"/>
    </edge>
    <edge id=":n4_7" function="internal">
        <lane id=":n4_7_0" index="0" speed="10.36" length="13.42" shape="13.60,1.60 6.95,0.65 2.20,-2.20 1.60,-3.20"/>
    </edge>
    <edge id=":n4_17" function="internal">
        <lane id=":n4_17_0" index="0" speed="10.36" length="11.09" shape="1.60,-3.20 -0.65,-6.95 -1.60,-13.60"/>
    </edge>
    <edge id=":n4_8" function="internal">
        <lane id=":n4_8_0" index="0" speed="6.51" length="9.03" shape="8.00,-13.60 8.35,-11.15 9.40,-9.40 11.15,-8.35 13.60,-8.00"/>
    </edge>
    <edge id=":n4_9" function="internal">
        <lane id=":n4_9_0" index="0" speed="13.89" length="27.20" shape="8.00,-13.60 8.00,13.60"/>
        <lane id=":n4_9_1" index="1" speed="13.89" length="27.20" shape="4.80,-13.60 4.80,13.60"/>
    </edge>
    <edge id=":n4_11" function="internal">
        <lane id=":n4_11_0" index="0" speed="10.36" length="13.42" shape="1.60,-13.60 0.65,-6.95 -2.20,-2.20 -3.20,-1.60"/>
    </edge>
    <edge id=":n4_18" function="internal">
        <lane id=":n4_18_0" index="0" speed="10.36" length="11.09" shape="-3.20,-1.60 -6.95,0.65 -13.60,1.60"/>
    </edge>
    <edge id=":n4_12" function="internal">
        <lane id=":n4_12_0" index="0" speed="6.51" length="9.03" shape="-13.60,-8.00 -11.15,-8.35 -9.40,-9.40 -8.35,-11.15 -8.00,-13.60"/>
    </edge>
    <edge id=":n4_13" function="internal">
        <lane id=":n4_13_0" index="0" speed="13.89" length="27.20" shape="-13.60,-8.00 13.60,-8.00"/>
        <lane id=":n4_13_1" index="1" speed="13.89" length="27.20" shape="-13.60,-4.80 13.60,-4.80"/>
    </edge>
    <edge id=":n4_15" function="internal">
        <lane id=":n4_15_0" index="0" speed="10.36" length="13.42" shape="-13.60,-1.60 -6.95,-0.65 -2.20,2.20 -1.60,3.20"/>
    </edge>
    <edge id=":n4_19" function="internal">
        <lane id=":n4_19_0" index="0" speed="10.36" length="11.09" shape="-1.60,3.20 0.65,6.95 1.60,13.60"/>
    </edge>

    <edge id="n0_n4" from="n0" to="n4" priority="-1">
        <lane id="n0_n4_0" index="0" speed="13.89" length="236.40" shape="-250.00,-8.00 -13.60,-8.00"/>
        <lane id="n0_n4_1" index="1" speed="13.89" length="236.40" shape="-250.00,-4.80 -13.60,-4.80"/>
        <lane id="n0_n4_2" index="2" speed="13.89" length="236.40" shape="-250.00,-1.60 -13.60,-1.60"/>
    </edge>
    <edge id="n1_n4" from="n1" to="n4" priority="-1">
        <lane id="n1_n4_0" index="0" speed="13.89" length="236.40" shape="-8.00,250.00 -8.00,13.60"/>
        <lane id="n1_n4_1" index="1" speed="13.89" length="236.40" shape="-4.80,250.00 -4.80,13.60"/>
        <lane id="n1_n4_2" index="2" speed="13.89" length="236.40" shape="-1.60,250.00 -1.60,13.60"/>
    </edge>
    <edge id="n2_n4" from="n2" to="n4" priority="-1">
        <lane id="n2_n4_0" index="0" speed="13.89" length="236.40" shape="250.00,8.00 13.60,8.00"/>
        <lane id="n2_n4_1" index="1" speed="13.89" length="236.40" shape="250.00,4.80 13.60,4.80"/>
        <lane id="n2_n4_2" index="2" speed="13.89" length="236.40" shape="250.00,1.60 13.60,1.60"/>
    </edge>
    <edge id="n3_n4" from="n3" to="n4" priority="-1">
        <lane id="n3_n4_0" index="0" speed="13.89" length="236.40" shape="8.00,-250.00 8.00,-13.60"/>
        <lane id="n3_n4_1" index="1" speed="13.89" length="236.40" shape="4.80,-250.00 4.80,-13.60"/>
        <lane id="n3_n4_2" index="2" speed="13.89" length="236.40" shape="1.60,-250.00 1.60,-13.60"/>
    </edge>
    <edge id="n4_n0" from="n4" to="n0" priority="-1">
        <lane id="n4_n0_0" index="0" speed="13.89" length="236.40" shape="-13.60,8.00 -250.00,8.00"/>
        <lane id="n4_n0_1" index="1" speed="13.89" length="236.40" shape="-13.60,4.80 -250.00,4.80"/>
        <lane id="n4_n0_2" index="2" speed="13.89" length="236.40" shape="-13.60,1.60 -250.00,1.60"/>
    </edge>
    <edge id="n4_n1" from="n4" to="n1" priority="-1">
        <lane id="n4_n1_0" index="0" speed="13.89" length="236.40" shape="8.00,13.60 8.00,250.00"/>
        <lane id="n4_n1_1" index="1" speed="13.89" length="236.40" shape="4.80,13.60 4.80,250.00"/>
        <lane id="n4_n1_2" index="2" speed="13.89" length="236.40" shape="1.60,13.60 1.60,250.00"/>
    </edge>
    <edge id="n4_n2" from="n4" to="n2" priority="-1">
        <lane id="n4_n2_0" index="0" speed="13.89" length="236.40" shape="13.60,-8.00 250.00,-8.00"/>
        <lane id="n4_n2_1" index="1" speed="13.89" length="236.40" shape="13.60,-4.80 250.00,-4.80"/>
        <lane id="n4_n2_2" index="2" speed="13.89" length="236.40" shape="13.60,-1.60 250.00,-1.60"/>
    </edge>
    <edge id="n4_n3" from="n4" to="n3" priority="-1">
        <lane id="n4_n3_0" index="0" speed="13.89" length="236.40" shape="-8.00,-13.60 -8.00,-250.00"/>
        <lane id="n4_n3_1" index="1" speed="13.89" length="236.40" shape="-4.80,-13.60 -4.80,-250.00"/>
        <lane id="n4_n3_2" index="2" speed="13.89" length="236.40" shape="-1.60,-13.60 -1.60,-250.00"/>
    </edge>

    <tlLogic id="n4" type="static" programID="0" offset="0">
        <phase duration="33" state="GGGgrrrrGGGgrrrr"/>
        <phase duration="3"  state="yyygrrrryyygrrrr"/>
        <phase duration="6"  state="rrrGrrrrrrrGrrrr"/>
        <phase duration="3"  state="rrryrrrrrrryrrrr"/>
        <phase duration="33" state="rrrrGGGgrrrrGGGg"/>
        <phase duration="3"  state="rrrryyygrrrryyyg"/>
        <phase duration="6"  state="rrrrrrrGrrrrrrrG"/>
        <phase duration="3"  state="rrrrrrryrrrrrrry"/>
    </tlLogic>

    <junction id="n0" type="dead_end" x="-250.00" y="0.00" incLanes="n4_n0_0 n4_n0_1 n4_n0_2" intLanes="" shape="-250.00,0.00 -250.00,9.60 -250.00,0.00"/>
    <junction id="n1" type="dead_end" x="0.00" y="250.00" incLanes="n4_n1_0 n4_n1_1 n4_n1_2" intLanes="" shape="0.00,250.00 9.60,250.00 0.00,250.00"/>
    <junction id="n2" type="dead_end" x="250.00" y="0.00" incLanes="n4_n2_0 n4_n2_1 n4_n2_2" intLanes="" shape="250.00,0.00 250.00,-9.60 250.00,0.00"/>
    <junction id="n3" type="dead_end" x="0.00" y="-250.00" incLanes="n4_n3_0 n4_n3_1 n4_n3_2" intLanes="" shape="0.00,-250.00 -9.60,-250.00 0.00,-250.00"/>
    <junction id="n4" type="traffic_light" x="0.00" y="0.00" incLanes="n1_n4_0 n1_n4_1 n1_n4_2 n2_n4_0 n2_n4_1 n2_n4_2 n3_n4_0 n3_n4_1 n3_n4_2 n0_n4_0 n0_n4_1 n0_n4_2" intLanes=":n4_0_0 :n4_1_0 :n4_1_1 :n4_16_0 :n4_4_0 :n4_5_0 :n4_5_1 :n4_17_0 :n4_8_0 :n4_9_0 :n4_9_1 :n4_18_0 :n4_12_0 :n4_13_0 :n4_13_1 :n4_19_0" shape="-9.60,13.60 9.60,13.60 10.04,11.38 10.60,10.60 11.38,10.04 12.38,9.71 13.60,9.60 13.60,-9.60 11.38,-10.04 10.60,-10.60 10.04,-11.38 9.71,-12.38 9.60,-13.60 -9.60,-13.60 -10.04,-11.38 -10.60,-10.60 -11.38,-10.04 -12.38,-9.71 -13.60,-9.60 -13.60,9.60 -11.38,10.04 -10.60,10.60 -10.04,11.38 -9.71,12.38">
        <request index="0"  response="0000000000000000" foes="0000000001100000" cont="0"/>
        <request index="1"  response="1000000000000000" foes="1111100001100000" cont="0"/>
        <request index="2"  response="1000000000000000" foes="1111100001100000" cont="0"/>
        <request index="3"  response="1000011010000000" foes="1000011011100000" cont="1"/>
        <request index="4"  response="0000011000000000" foes="0000011000000000" cont="0"/>
        <request index="5"  response="0000011000001111" foes="1000011000001111" cont="0"/>
        <request index="6"  response="0000011000001111" foes="1000011000001111" cont="0"/>
        <request index="7"  response="0110111000001000" foes="0110111000001000" cont="1"/>
        <request index="8"  response="0000000000000000" foes="0110000000000000" cont="0"/>
        <request index="9"  response="0000000010000000" foes="0110000011111000" cont="0"/>
        <request index="10" response="0000000010000000" foes="0110000011111000" cont="0"/>
        <request index="11" response="1000000010000110" foes="1110000010000110" cont="1"/>
        <request index="12" response="0000000000000110" foes="0000000000000110" cont="0"/>
        <request index="13" response="0000111100000110" foes="0000111110000110" cont="0"/>
        <request index="14" response="0000111100000110" foes="0000111110000110" cont="0"/>
        <request index="15" response="0000100001101110" foes="0000100001101110" cont="1"/>
    </junction>

    <junction id=":n4_16_0" type="internal" x="3.20" y="1.60" incLanes=":n4_3_0 n3_n4_0 n3_n4_1" intLanes=":n4_5_0 :n4_5_1 :n4_7_0 :n4_8_0 :n4_9_0 :n4_9_1 :n4_13_0 :n4_13_1 :n4_15_0"/>
    <junction id=":n4_17_0" type="internal" x="1.60" y="-3.20" incLanes=":n4_7_0 n0_n4_0 n0_n4_1" intLanes=":n4_1_0 :n4_1_1 :n4_3_0 :n4_9_0 :n4_9_1 :n4_11_0 :n4_12_0 :n4_13_0 :n4_13_1"/>
    <junction id=":n4_18_0" type="internal" x="-3.20" y="-1.60" incLanes=":n4_11_0 n1_n4_0 n1_n4_1" intLanes=":n4_0_0 :n4_1_0 :n4_1_1 :n4_5_0 :n4_5_1 :n4_7_0 :n4_13_0 :n4_13_1 :n4_15_0"/>
    <junction id=":n4_19_0" type="internal" x="-1.60" y="3.20" incLanes=":n4_15_0 n2_n4_0 n2_n4_1" intLanes=":n4_1_0 :n4_1_1 :n4_3_0 :n4_4_0 :n4_5_0 :n4_5_1 :n4_9_0 :n4_9_1 :n4_11_0"/>

    <connection from="n0_n4" to="n4_n3" fromLane="0" toLane="0" via=":n4_12_0" tl="n4" linkIndex="12" dir="r" state="o"/>
    <connection from="n0_n4" to="n4_n2" fromLane="0" toLane="0" via=":n4_13_0" tl="n4" linkIndex="13" dir="s" state="o"/>
    <connection from="n0_n4" to="n4_n2" fromLane="1" toLane="1" via=":n4_13_1" tl="n4" linkIndex="14" dir="s" state="o"/>
    <connection from="n0_n4" to="n4_n1" fromLane="2" toLane="2" via=":n4_15_0" tl="n4" linkIndex="15" dir="l" state="o"/>
    <connection from="n1_n4" to="n4_n0" fromLane="0" toLane="0" via=":n4_0_0" tl="n4" linkIndex="0" dir="r" state="O"/>
    <connection from="n1_n4" to="n4_n3" fromLane="0" toLane="0" via=":n4_1_0" tl="n4" linkIndex="1" dir="s" state="O"/>
    <connection from="n1_n4" to="n4_n3" fromLane="1" toLane="1" via=":n4_1_1" tl="n4" linkIndex="2" dir="s" state="O"/>
    <connection from="n1_n4" to="n4_n2" fromLane="2" toLane="2" via=":n4_3_0" tl="n4" linkIndex="3" dir="l" state="o"/>
    <connection from="n2_n4" to="n4_n1" fromLane="0" toLane="0" via=":n4_4_0" tl="n4" linkIndex="4" dir="r" state="o"/>
    <connection from="n2_n4" to="n4_n0" fromLane="0" toLane="0" via=":n4_5_0" tl="n4" linkIndex="5" dir="s" state="o"/>
    <connection from="n2_n4" to="n4_n0" fromLane="1" toLane="1" via=":n4_5_1" tl="n4" linkIndex="6" dir="s" state="o"/>
    <connection from="n2_n4" to="n4_n3" fromLane="2" toLane="2" via=":n4_7_0" tl="n4" linkIndex="7" dir="l" state="o"/>
    <connection from="n3_n4" to="n4_n2" fromLane="0" toLane="0" via=":n4_8_0" tl="n4" linkIndex="8" dir="r" state="O"/>
    <connection from="n3_n4" to="n4_n1" fromLane="0" toLane="0" via=":n4_9_0" tl="n4" linkIndex="9" dir="s" state="O"/>
    <connection from="n3_n4" to="n4_n1" fromLane="1" toLane="1" via=":n4_9_1" tl="n4" linkIndex="10" dir="s" state="O"/>
    <connection from="n3_n4" to="n4_n0" fromLane="2" toLane="2" via=":n4_11_0" tl="n4" linkIndex="11" dir="l" state="o"/>

    <connection from=":n4_0" to="n4_n0" fromLane="0" toLane="0" dir="r" state="M"/>
    <connection from=":n4_1" to="n4_n3" fromLane="0" toLane="0" dir="s" state="M"/>
    <connection from=":n4_1" to="n4_n3" fromLane="1" toLane="1" dir="s" state="M"/>
    <connection from=":n4_3" to="n4_n2" fromLane="0" toLane="2" via=":n4_16_0" dir="l" state="m"/>
    <connection from=":n4_16" to="n4_n2" fromLane="0" toLane="2" dir="l" state="M"/>
    <connection from=":n4_4" to="n4_n1" fromLane="0" toLane="0" dir="r" state="M"/>
    <connection from=":n4_5" to="n4_n0" fromLane="0" toLane="0" dir="s" state="M"/>
    <connection from=":n4_5" to="n4_n0" fromLane="1" toLane="1" dir="s" state="M"/>
    <connection from=":n4_7" to="n4_n3" fromLane="0" toLane="2" via=":n4_17_0" dir="l" state="m"/>
    <connection from=":n4_17" to="n4_n3" fromLane="0" toLane="2" dir="l" state="M"/>
    <connection from=":n4_8" to="n4_n2" fromLane="0" toLane="0" dir="r" state="M"/>
    <connection from=":n4_9" to="n4_n1" fromLane="0" toLane="0" dir="s" state="M"/>
    <connection from=":n4_9" to="n4_n1" fromLane="1" toLane="1" dir="s" state="M"/>
    <connection from=":n4_11" to="n4_n0" fromLane="0" toLane="2" via=":n4_18_0" dir="l" state="m"/>
    <connection from=":n4_18" to="n4_n0" fromLane="0" toLane="2" dir="l" state="M"/>
    <connection from=":n4_12" to="n4_n3" fromLane="0" toLane="0" dir="r" state="M"/>
    <connection from=":n4_13" to="n4_n2" fromLane="0" toLane="0" dir="s" state="M"/>
    <connection from=":n4_13" to="n4_n2" fromLane="1" toLane="1" dir="s" state="M"/>
    <connection from=":n4_15" to="n4_n1" fromLane="0" toLane="2" via=":n4_19_0" dir="l" state="m"/>
    <connection from=":n4_19" to="n4_n1" fromLane="0" toLane="2" dir="l" state="M"/>

</net>
