<additional xmlns:xsi="http://www.w3.org/2001/XMLSchema-instance" xsi:noNamespaceSchemaLocation="https://sumo.dlr.de/xsd/additional_file.xsd">
    <e1Detector file="localhost:9000" freq="10" friendlyPos="x" id="e1det_-180596549_0" lane="-180596549_0" pos="4.18"/>
    <e1Detector file="localhost:9000" freq="10" friendlyPos="x" id="e1det_129621746#3_0" lane="129621746#3_0" pos="62.83"/>
    <e1Detector file="localhost:9000" freq="10" friendlyPos="x" id="e1det_26704628-cluster_1910176242_251106770_26938227_4911322574_654381302_0" lane="26704628-cluster_1910176242_251106770_26938227_4911322574_654381302_0" pos="2.01"/>
    <e1Detector file="localhost:9000" freq="10" friendlyPos="x" id="e1det_26704628-cluster_1910176242_251106770_26938227_4911322574_654381302_1" lane="26704628-cluster_1910176242_251106770_26938227_4911322574_654381302_1" pos="2.01"/>
    <e1Detector file="localhost:9000" freq="10" friendlyPos="x" id="e1det_26704628-cluster_1910176242_251106770_26938227_4911322574_654381302_2" lane="26704628-cluster_1910176242_251106770_26938227_4911322574_654381302_2" pos="2.01"/>
    <e1Detector file="localhost:9000" freq="10" friendlyPos="x" id="e1det_26704628-cluster_1910176242_251106770_26938227_4911322574_654381302_3" lane="26704628-cluster_1910176242_251106770_26938227_4911322574_654381302_3" pos="2.01"/>
    <e1Detector file="localhost:9000" freq="10" friendlyPos="x" id="e1det_1223838352-cluster_21487142_251106773_251150123_26785753_4911322581_4911322583_667945032_667945033_0" lane="1223838352-cluster_21487142_251106773_251150123_26785753_4911322581_4911322583_667945032_667945033_0" pos="78.1"/>
    <e1Detector file="localhost:9000" freq="10" friendlyPos="x" id="e1det_1223838352-cluster_21487142_251106773_251150123_26785753_4911322581_4911322583_667945032_667945033_1" lane="1223838352-cluster_21487142_251106773_251150123_26785753_4911322581_4911322583_667945032_667945033_1" pos="78.1"/>
    <e1Detector file="localhost:9000" freq="10" friendlyPos="x" id="e1det_1223838352-cluster_21487142_251106773_251150123_26785753_4911322581_4911322583_667945032_667945033_2" lane="1223838352-cluster_21487142_251106773_251150123_26785753_4911322581_4911322583_667945032_667945033_2" pos="78.1"/>
    <e1Detector file="localhost:9000" freq="10" friendlyPos="x" id="e1det_1223838352-cluster_21487142_251106773_251150123_26785753_4911322581_4911322583_667945032_667945033_3" lane="1223838352-cluster_21487142_251106773_251150123_26785753_4911322581_4911322583_667945032_667945033_3" pos="78.1"/>
    <e1Detector file="localhost:9000" freq="10" friendlyPos="x" id="e1det_129621748#0_0" lane="129621748#0_0" pos="52.05"/>
    <e1Detector file="localhost:9000" freq="10" friendlyPos="x" id="e1det_cluster_21487143_4911322575_654381305-cluster_21487142_251106773_251150123_26785753_4911322581_4911322583_667945032_667945033_0" lane="cluster_21487143_4911322575_654381305-cluster_21487142_251106773_251150123_26785753_4911322581_4911322583_667945032_667945033_0" pos="27.83"/>
    <e1Detector file="localhost:9000" freq="10" friendlyPos="x" id="e1det_cluster_21487143_4911322575_654381305-cluster_21487142_251106773_251150123_26785753_4911322581_4911322583_667945032_667945033_1" lane="cluster_21487143_4911322575_654381305-cluster_21487142_251106773_251150123_26785753_4911322581_4911322583_667945032_667945033_1" pos="27.83"/>
    <e1Detector file="localhost:9000" freq="10" friendlyPos="x" id="e1det_cluster_21487143_4911322575_654381305-cluster_21487142_251106773_251150123_26785753_4911322581_4911322583_667945032_667945033_3" lane="cluster_21487143_4911322575_654381305-cluster_21487142_251106773_251150123_26785753_4911322581_4911322583_667945032_667945033_3" pos="27.83"/>
    <e1Detector file="localhost:9000" freq="10" friendlyPos="x" id="e1det_cluster_21487143_4911322575_654381305-cluster_21487142_251106773_251150123_26785753_4911322581_4911322583_667945032_667945033_4" lane="cluster_21487143_4911322575_654381305-cluster_21487142_251106773_251150123_26785753_4911322581_4911322583_667945032_667945033_4" pos="27.83"/>
    <e1Detector file="localhost:9000" freq="10" friendlyPos="x" id="e1det_129621743_0" lane="129621743_0" pos="6.1"/>
    <e1Detector file="localhost:9000" freq="10" friendlyPos="x" id="e1det_1321325634-cluster_21487143_4911322575_654381305_0" lane="1321325634-cluster_21487143_4911322575_654381305_0" pos="6.13"/>
    <e1Detector file="localhost:9000" freq="10" friendlyPos="x" id="e1det_1321325634-cluster_21487143_4911322575_654381305_1" lane="1321325634-cluster_21487143_4911322575_654381305_1" pos="6.13"/>
    <e1Detector file="localhost:9000" freq="10" friendlyPos="x" id="e1det_1321325634-cluster_21487143_4911322575_654381305_2" lane="1321325634-cluster_21487143_4911322575_654381305_2" pos="6.13"/>
    <e1Detector file="localhost:9000" freq="10" friendlyPos="x" id="e1det_cluster_1910176242_251106770_26938227_4911322574_654381302-cluster_21487143_4911322575_654381305_0" lane="cluster_1910176242_251106770_26938227_4911322574_654381302-cluster_21487143_4911322575_654381305_0" pos="25.77"/>
    <e1Detector file="localhost:9000" freq="10" friendlyPos="x" id="e1det_cluster_1910176242_251106770_26938227_4911322574_654381302-cluster_21487143_4911322575_654381305_1" lane="cluster_1910176242_251106770_26938227_4911322574_654381302-cluster_21487143_4911322575_654381305_1" pos="25.77"/>
    <e1Detector file="localhost:9000" freq="10" friendlyPos="x" id="e1det_cluster_1910176242_251106770_26938227_4911322574_654381302-cluster_21487143_4911322575_654381305_2" lane="cluster_1910176242_251106770_26938227_4911322574_654381302-cluster_21487143_4911322575_654381305_2" pos="25.77"/>
    <e1Detector file="localhost:9000" freq="10" friendlyPos="x" id="e1det_cluster_1910176242_251106770_26938227_4911322574_654381302-cluster_21487143_4911322575_654381305_3" lane="cluster_1910176242_251106770_26938227_4911322574_654381302-cluster_21487143_4911322575_654381305_3" pos="25.77"/>
    <e1Detector file="localhost:9000" freq="10" friendlyPos="x" id="e1det_129621746#0_0" lane="129621746#0_0" pos="0"/>
    <e1Detector file="localhost:9000" freq="10" friendlyPos="x" id="e1det_21487168-4911322403_0" lane="21487168-4911322403_0" pos="7.86"/>
    <e1Detector file="localhost:9000" freq="10" friendlyPos="x" id="e1det_21487168-4911322403_1" lane="21487168-4911322403_1" pos="7.86"/>
    <e1Detector file="localhost:9000" freq="10" friendlyPos="x" id="e1det_21487168-4911322403_2" lane="21487168-4911322403_2" pos="7.86"/>
    <e1Detector file="localhost:9000" freq="10" friendlyPos="x" id="e1det_21487168-cluster_21487145_5313824950_654381359_0" lane="21487168-cluster_21487145_5313824950_654381359_0" pos="1.48"/>
    <e1Detector file="localhost:9000" freq="10" friendlyPos="x" id="e1det_21487168-cluster_21487145_5313824950_654381359_1" lane="21487168-cluster_21487145_5313824950_654381359_1" pos="1.48"/>
    <e1Detector file="localhost:9000" freq="10" friendlyPos="x" id="e1det_21487168-cluster_21487145_5313824950_654381359_2" lane="21487168-cluster_21487145_5313824950_654381359_2" pos="1.48"/>
    <e1Detector file="localhost:9000" freq="10" friendlyPos="x" id="e1det_21487168-cluster_21487145_5313824950_654381359_3" lane="21487168-cluster_21487145_5313824950_654381359_3" pos="1.48"/>
    <e1Detector file="localhost:9000" freq="10" friendlyPos="x" id="e1det_415838100-cluster_21487145_5313824950_654381359_0" lane="415838100-cluster_21487145_5313824950_654381359_0" pos="0.05"/>
    <e1Detector file="localhost:9000" freq="10" friendlyPos="x" id="e1det_415838100-cluster_21487145_5313824950_654381359_1" lane="415838100-cluster_21487145_5313824950_654381359_1" pos="0.05"/>
    <e1Detector file="localhost:9000" freq="10" friendlyPos="x" id="e1det_415838100-cluster_21487145_5313824950_654381359_2" lane="415838100-cluster_21487145_5313824950_654381359_2" pos="0.05"/>
    <e1Detector file="localhost:9000" freq="10" friendlyPos="x" id="e1det_4911322403-654381332_0" lane="4911322403-654381332_0" pos="0"/>
    <e1Detector file="localhost:9000" freq="10" friendlyPos="x" id="e1det_4911322403-654381332_1" lane="4911322403-654381332_1" pos="0"/>
    <e1Detector file="localhost:9000" freq="10" friendlyPos="x" id="e1det_4911322403-654381332_2" lane="4911322403-654381332_2" pos="0"/>
    <e1Detector file="localhost:9000" freq="10" friendlyPos="x" id="e1det_499958263#0_0" lane="499958263#0_0" pos="5.52"/>
    <e1Detector file="localhost:9000" freq="10" friendlyPos="x" id="e1det_499958263#2_0" lane="499958263#2_0" pos="7.96"/>
    <e1Detector file="localhost:9000" freq="10" friendlyPos="x" id="e1det_cluster_21487145_5313824950_654381359-cluster_1656102229_21487148_4911322567_654381393_0" lane="cluster_21487145_5313824950_654381359-cluster_1656102229_21487148_4911322567_654381393_0" pos="14.1"/>
    <e1Detector file="localhost:9000" freq="10" friendlyPos="x" id="e1det_cluster_21487145_5313824950_654381359-cluster_1656102229_21487148_4911322567_654381393_1" lane="cluster_21487145_5313824950_654381359-cluster_1656102229_21487148_4911322567_654381393_1" pos="14.1"/>
    <e1Detector file="localhost:9000" freq="10" friendlyPos="x" id="e1det_cluster_21487145_5313824950_654381359-cluster_1656102229_21487148_4911322567_654381393_2" lane="cluster_21487145_5313824950_654381359-cluster_1656102229_21487148_4911322567_654381393_2" pos="14.1"/>
    <e1Detector file="localhost:9000" freq="10" friendlyPos="x" id="e1det_cluster_21487145_5313824950_654381359-cluster_1656102229_21487148_4911322567_654381393_3" lane="cluster_21487145_5313824950_654381359-cluster_1656102229_21487148_4911322567_654381393_3" pos="14.1"/>
    <e1Detector file="localhost:9000" freq="10" friendlyPos="x" id="e1det_129621746#2_0" lane="129621746#2_0" pos="7.5"/>
    <e1Detector file="localhost:9000" freq="10" friendlyPos="x" id="e1det_1723927599-cluster_21487144_4911322569_654381390_0" lane="1723927599-cluster_21487144_4911322569_654381390_0" pos="30.23"/>
    <e1Detector file="localhost:9000" freq="10" friendlyPos="x" id="e1det_1723927599-cluster_21487144_4911322569_654381390_1" lane="1723927599-cluster_21487144_4911322569_654381390_1" pos="30.23"/>
    <e1Detector file="localhost:9000" freq="10" friendlyPos="x" id="e1det_1723927599-cluster_21487144_4911322569_654381390_2" lane="1723927599-cluster_21487144_4911322569_654381390_2" pos="30.23"/>
    <e1Detector file="localhost:9000" freq="10" friendlyPos="x" id="e1det_25185005#0_0" lane="25185005#0_0" pos="22.23"/>
    <e1Detector file="localhost:9000" freq="10" friendlyPos="x" id="e1det_25185005#0_1" lane="25185005#0_1" pos="22.23"/>
    <e1Detector file="localhost:9000" freq="10" friendlyPos="x" id="e1det_25185005#0_2" lane="25185005#0_2" pos="22.23"/>
    <e1Detector file="localhost:9000" freq="10" friendlyPos="x" id="e1det_25185005#0_3" lane="25185005#0_3" pos="22.23"/>
    <e1Detector file="localhost:9000" freq="10" friendlyPos="x" id="e1det_171484595#1_0" lane="171484595#1_0" pos="43.26"/>
    <e1Detector file="localhost:9000" freq="10" friendlyPos="x" id="e1det_171484595#3_0" lane="171484595#3_0" pos="5.48"/>
    <e1Detector file="localhost:9000" freq="10" friendlyPos="x" id="e1det_26704048-cluster_1560792368_21487146_654381313_0" lane="26704048-cluster_1560792368_21487146_654381313_0" pos="0"/>
    <e1Detector file="localhost:9000" freq="10" friendlyPos="x" id="e1det_26704048-cluster_1560792368_21487146_654381313_1" lane="26704048-cluster_1560792368_21487146_654381313_1" pos="0"/>
    <e1Detector file="localhost:9000" freq="10" friendlyPos="x" id="e1det_26704048-cluster_1560792368_21487146_654381313_2" lane="26704048-cluster_1560792368_21487146_654381313_2" pos="0"/>
    <e1Detector file="localhost:9000" freq="10" friendlyPos="x" id="e1det_26704048-cluster_1560792368_21487146_654381313_3" lane="26704048-cluster_1560792368_21487146_654381313_3" pos="0"/>
    <e1Detector file="localhost:9000" freq="10" friendlyPos="x" id="e1det_cluster_26704584_3804638213-cluster_1560792368_21487146_654381313_0" lane="cluster_26704584_3804638213-cluster_1560792368_21487146_654381313_0" pos="2.74"/>
    <e1Detector file="localhost:9000" freq="10" friendlyPos="x" id="e1det_cluster_26704584_3804638213-cluster_1560792368_21487146_654381313_1" lane="cluster_26704584_3804638213-cluster_1560792368_21487146_654381313_1" pos="2.74"/>
    <e1Detector file="localhost:9000" freq="10" friendlyPos="x" id="e1det_cluster_26704584_3804638213-cluster_1560792368_21487146_654381313_2" lane="cluster_26704584_3804638213-cluster_1560792368_21487146_654381313_2" pos="2.74"/>
    <e1Detector file="localhost:9000" freq="10" friendlyPos="x" id="e1det_cluster_26704584_3804638213-cluster_4912579007_654381284_0" lane="cluster_26704584_3804638213-cluster_4912579007_654381284_0" pos="16.6"/>
    <e1Detector file="localhost:9000" freq="10" friendlyPos="x" id="e1det_cluster_26704584_3804638213-cluster_4912579007_654381284_1" lane="cluster_26704584_3804638213-cluster_4912579007_654381284_1" pos="16.6"/>
    <e1Detector file="localhost:9000" freq="10" friendlyPos="x" id="e1det_cluster_26704584_3804638213-cluster_4912579007_654381284_2" lane="cluster_26704584_3804638213-cluster_4912579007_654381284_2" pos="16.6"/>
</additional>
