<?xml version="1.0" encoding="UTF-8"?>

<routes xmlns:xsi="http://www.w3.org/2001/XMLSchema-instance" xsi:noNamespaceSchemaLocation="http://sumo.dlr.de/xsd/routes_file.xsd">
    <vTypeDistribution id="passenger">
	<vType id="passenger#0" probability="0.25" width="1.8" length="4.3" maxSpeed="50" guiShape="passenger/sedan" minGap="2.5" accel="2.9" decel="4.5" height="1.5"/>
	<vType id="passenger#1" probability="0.25" width="1.8" length="4.3" maxSpeed="50" guiShape="passenger/hatchback" minGap="2.5" accel="2.9" decel="4.5" height="1.5"/>
	<vType id="passenger#2" probability="0.20" width="1.8" length="4.3" maxSpeed="50" guiShape="passenger/wagon" minGap="2.5" accel="2.9" decel="4.5" height="1.5"/>
	<vType id="passenger#3" probability="0.15" width="1.9" length="4.7" maxSpeed="50" guiShape="passenger/van" minGap="2.5" accel="2.9" decel="4.5" height="1.73"/>
	<vType id="passenger#4" probability="0.15" width="2.16" length="6.5" maxSpeed="50" guiShape="delivery" minGap="2.5" accel="2.9" decel="4.5" height="2.86"/>
    </vTypeDistribution>

    <vTypeDistribution id="motorcycle">
	<vType id="motorcycle#0" probability="0.15" width="1.8" length="2.2" maxSpeed="50" guiShape="motorcycle" minGap="2.5" accel="6" decel="4.5" height="1.5"/>
    </vTypeDistribution>


	<!-- from Bismarckstraße to Hardenbergstraße -->
	<route id="west_to_south" edges="1223838352-cluster_21487142_251106773_251150123_26785753_4911322581_4911322583_667945032_667945033 cluster_21487142_251106773_251150123_26785753_4911322581_4911322583_667945032_667945033-cluster_26704584_3804638213 cluster_26704584_3804638213-cluster_4912579007_654381284 cluster_4912579007_654381284-26938207 26938207-26760192" />

	<!-- from Bismarckstraße to Straße des 17. Juni -->
	<route id="west_to_east" edges="1223838352-cluster_21487142_251106773_251150123_26785753_4911322581_4911322583_667945032_667945033 cluster_21487142_251106773_251150123_26785753_4911322581_4911322583_667945032_667945033-cluster_26704584_3804638213 cluster_26704584_3804638213-cluster_1560792368_21487146_654381313 cluster_1560792368_21487146_654381313-21487168 21487168-4911322403 4911322403-654381332 654381332-251150126 251150126-4911234302" />

	<!-- from Bismarckstraße to Marchstraße -->
	<route id="west_to_north" edges="1223838352-cluster_21487142_251106773_251150123_26785753_4911322581_4911322583_667945032_667945033 cluster_21487142_251106773_251150123_26785753_4911322581_4911322583_667945032_667945033-cluster_26704584_3804638213 cluster_26704584_3804638213-cluster_1560792368_21487146_654381313 cluster_1560792368_21487146_654381313-21487168 21487168-cluster_21487145_5313824950_654381359 cluster_21487145_5313824950_654381359-cluster_1656102229_21487148_4911322567_654381393 cluster_1656102229_21487148_4911322567_654381393-364309968" />

	<!-- from Bismarckstraße to Otto-Suhr-Allee -->
	<route id="west_to_northwest" edges="1223838352-cluster_21487142_251106773_251150123_26785753_4911322581_4911322583_667945032_667945033 cluster_21487142_251106773_251150123_26785753_4911322581_4911322583_667945032_667945033-cluster_26704584_3804638213 cluster_26704584_3804638213-cluster_1560792368_21487146_654381313 cluster_1560792368_21487146_654381313-21487168 21487168-cluster_21487145_5313824950_654381359 cluster_21487145_5313824950_654381359-cluster_1656102229_21487148_4911322567_654381393 25185005#0 cluster_21487144_4911322569_654381390-26704628 26704628-cluster_1910176242_251106770_26938227_4911322574_654381302 cluster_1910176242_251106770_26938227_4911322574_654381302-1321325636 1321325636-1910194499 1910194499-26938198 26938198-1757441427" />

	<!-- from Bismarckstraße to Bismarckstraße -->
	<route id="west_to_west" edges="1223838352-cluster_21487142_251106773_251150123_26785753_4911322581_4911322583_667945032_667945033 cluster_21487142_251106773_251150123_26785753_4911322581_4911322583_667945032_667945033-cluster_26704584_3804638213 cluster_26704584_3804638213-cluster_1560792368_21487146_654381313 cluster_1560792368_21487146_654381313-21487168 21487168-cluster_21487145_5313824950_654381359 cluster_21487145_5313824950_654381359-cluster_1656102229_21487148_4911322567_654381393 25185005#0 cluster_21487144_4911322569_654381390-26704628 26704628-cluster_1910176242_251106770_26938227_4911322574_654381302 cluster_1910176242_251106770_26938227_4911322574_654381302-cluster_21487143_4911322575_654381305 cluster_21487143_4911322575_654381305-cluster_21487142_251106773_251150123_26785753_4911322581_4911322583_667945032_667945033 cluster_21487142_251106773_251150123_26785753_4911322581_4911322583_667945032_667945033-26938223 26938223-628156652" />

	<!-- -->

	<vehicle id="0" type="passenger" route="west_to_south" depart="0"/>
	<vehicle id="1" type="passenger" route="west_to_east" depart="0"/>
	<vehicle id="2" type="passenger" route="west_to_north" depart="0"/>
	<vehicle id="3" type="passenger" route="west_to_northwest" depart="0"/>
	<vehicle id="4" type="passenger" route="west_to_west" depart="0"/>
	<vehicle id="5" type="passenger" route="west_to_south" depart="0"/>
	<vehicle id="6" type="passenger" route="west_to_east" depart="0"/>
	<vehicle id="7" type="passenger" route="west_to_north" depart="0"/>
	<vehicle id="8" type="passenger" route="west_to_northwest" depart="0"/>
	<vehicle id="9" type="passenger" route="west_to_west" depart="0"/>
	<vehicle id="10" type="passenger" route="west_to_south" depart="0"/>
	<vehicle id="11" type="passenger" route="west_to_east" depart="0"/>
	<vehicle id="12" type="passenger" route="west_to_north" depart="0"/>
	<vehicle id="13" type="passenger" route="west_to_northwest" depart="0"/>
	<vehicle id="14" type="passenger" route="west_to_west" depart="0"/>
	<vehicle id="15" type="passenger" route="west_to_south" depart="0"/>
	<vehicle id="16" type="passenger" route="west_to_east" depart="0"/>
	<vehicle id="17" type="passenger" route="west_to_north" depart="0"/>
	<vehicle id="18" type="passenger" route="west_to_northwest" depart="0"/>
	<vehicle id="19" type="passenger" route="west_to_west" depart="0"/>
	<vehicle id="20" type="passenger" route="west_to_south" depart="0"/>
	<vehicle id="21" type="passenger" route="west_to_east" depart="0"/>
	<vehicle id="22" type="passenger" route="west_to_north" depart="0"/>
	<vehicle id="23" type="passenger" route="west_to_northwest" depart="0"/>
	<vehicle id="24" type="passenger" route="west_to_west" depart="0"/>



</routes>
