<?xml version="1.0" encoding="UTF-8"?>

<!-- generated on Di 15 Okt 2019 08:32:15 CEST by Eclipse SUMO netedit Version v1_1_0+1526-08c2293b1a
<configuration xmlns:xsi="http://www.w3.org/2001/XMLSchema-instance" xsi:noNamespaceSchemaLocation="http://sumo.dlr.de/xsd/netconvertConfiguration.xsd">

    <input>
        <sumo-net-file value="ernstreuterplatz.net.xml"/>
    </input>

    <output>
        <output-file value="ernstreuterplatz.net.xml"/>
        <output.street-names value="true"/>
    </output>

    <processing>
        <geometry.max-grade.fix value="false"/>
        <offset.disable-normalization value="true"/>
        <lefthand value="false"/>
    </processing>

    <junctions>
        <no-turnarounds value="true"/>
        <junctions.corner-detail value="5"/>
        <junctions.limit-turn-speed value="5.5"/>
        <rectangular-lane-cut value="false"/>
    </junctions>

    <pedestrian>
        <walkingareas value="false"/>
    </pedestrian>

</configuration>
-->

<net version="1.1" junctionCornerDetail="5" limitTurnSpeed="5.50" xmlns:xsi="http://www.w3.org/2001/XMLSchema-instance" xsi:noNamespaceSchemaLocation="http://sumo.dlr.de/xsd/net_file.xsd">

    <location netOffset="-385034.44,-5818861.27" convBoundary="0.00,0.00,1638.44,919.99" origBoundary="13.305909,52.508053,13.329998,52.516267" projParameter="+proj=utm +zone=33 +ellps=WGS84 +datum=WGS84 +units=m +no_defs"/>

    <type id="highway.bridleway" priority="1" numLanes="1" speed="2.78" allow="pedestrian" oneway="1" width="2.00"/>
    <type id="highway.bus_guideway" priority="1" numLanes="1" speed="27.78" allow="bus" oneway="1"/>
    <type id="highway.cycleway" priority="1" numLanes="1" speed="8.33" allow="bicycle" oneway="0" width="1.00"/>
    <type id="highway.footway" priority="1" numLanes="1" speed="2.78" allow="pedestrian" oneway="1" width="2.00"/>
    <type id="highway.ford" priority="1" numLanes="1" speed="2.78" allow="army" oneway="0"/>
    <type id="highway.living_street" priority="2" numLanes="1" speed="2.78" disallow="tram rail_urban rail rail_electric ship" oneway="0"/>
    <type id="highway.motorway" priority="14" numLanes="2" speed="44.44" allow="private emergency authority army vip passenger hov taxi bus coach delivery truck trailer motorcycle evehicle custom1 custom2" oneway="1"/>
    <type id="highway.motorway_link" priority="9" numLanes="1" speed="22.22" allow="private emergency authority army vip passenger hov taxi bus coach delivery truck trailer motorcycle evehicle custom1 custom2" oneway="1"/>
    <type id="highway.path" priority="1" numLanes="1" speed="2.78" allow="bicycle pedestrian" oneway="1" width="2.00"/>
    <type id="highway.pedestrian" priority="1" numLanes="1" speed="2.78" allow="pedestrian" oneway="1" width="2.00"/>
    <type id="highway.primary" priority="12" numLanes="2" speed="27.78" disallow="tram rail_urban rail rail_electric ship" oneway="0"/>
    <type id="highway.primary_link" priority="7" numLanes="1" speed="22.22" disallow="tram rail_urban rail rail_electric ship" oneway="0"/>
    <type id="highway.raceway" priority="15" numLanes="2" speed="83.33" allow="vip" oneway="0"/>
    <type id="highway.residential" priority="3" numLanes="1" speed="13.89" disallow="tram rail_urban rail rail_electric ship" oneway="0"/>
    <type id="highway.secondary" priority="11" numLanes="2" speed="27.78" disallow="tram rail_urban rail rail_electric ship" oneway="0"/>
    <type id="highway.secondary_link" priority="6" numLanes="1" speed="22.22" disallow="tram rail_urban rail rail_electric ship" oneway="0"/>
    <type id="highway.service" priority="1" numLanes="1" speed="5.56" allow="delivery bicycle pedestrian" oneway="0"/>
    <type id="highway.stairs" priority="1" numLanes="1" speed="1.39" allow="pedestrian" oneway="1" width="2.00"/>
    <type id="highway.step" priority="1" numLanes="1" speed="1.39" allow="pedestrian" oneway="1" width="2.00"/>
    <type id="highway.steps" priority="1" numLanes="1" speed="1.39" allow="pedestrian" oneway="1" width="2.00"/>
    <type id="highway.tertiary" priority="10" numLanes="1" speed="22.22" disallow="tram rail_urban rail rail_electric ship" oneway="0"/>
    <type id="highway.tertiary_link" priority="5" numLanes="1" speed="22.22" disallow="tram rail_urban rail rail_electric ship" oneway="0"/>
    <type id="highway.track" priority="1" numLanes="1" speed="5.56" disallow="tram rail_urban rail rail_electric ship" oneway="0"/>
    <type id="highway.trunk" priority="13" numLanes="2" speed="27.78" disallow="tram rail_urban rail rail_electric bicycle pedestrian ship" oneway="0"/>
    <type id="highway.trunk_link" priority="8" numLanes="1" speed="22.22" disallow="tram rail_urban rail rail_electric bicycle pedestrian ship" oneway="0"/>
    <type id="highway.unclassified" priority="4" numLanes="1" speed="13.89" disallow="tram rail_urban rail rail_electric ship" oneway="0"/>
    <type id="highway.unsurfaced" priority="1" numLanes="1" speed="8.33" disallow="tram rail_urban rail rail_electric ship" oneway="0"/>
    <type id="railway.light_rail" priority="19" numLanes="1" speed="27.78" allow="rail_urban" oneway="1"/>
    <type id="railway.preserved" priority="16" numLanes="1" speed="27.78" allow="rail" oneway="1"/>
    <type id="railway.rail" priority="20" numLanes="1" speed="83.33" allow="rail rail_electric" oneway="1"/>
    <type id="railway.subway" priority="18" numLanes="1" speed="27.78" allow="rail_urban" oneway="1"/>
    <type id="railway.tram" priority="17" numLanes="1" speed="13.89" allow="tram" oneway="1"/>

    <edge id=":1321325634_0" function="internal">
        <lane id=":1321325634_0_0" index="0" disallow="tram rail_urban rail rail_electric ship" speed="13.89" length="5.42" shape="1005.39,588.68 1006.67,587.99 1007.53,587.49 1008.35,586.93 1009.51,586.05"/>
        <lane id=":1321325634_0_1" index="1" disallow="tram rail_urban rail rail_electric ship" speed="13.89" length="5.42" shape="1006.93,591.49 1008.34,590.72 1009.30,590.17 1010.21,589.54 1011.48,588.57"/>
        <lane id=":1321325634_0_2" index="2" disallow="tram rail_urban rail rail_electric ship" speed="13.89" length="5.42" shape="1008.47,594.29 1010.02,593.45 1011.06,592.84 1012.06,592.16 1013.46,591.08"/>
    </edge>
    <edge id=":1321325634_3" function="internal">
        <lane id=":1321325634_3_0" index="0" allow="delivery bicycle pedestrian" speed="5.02" length="5.02" shape="1008.47,594.29 1009.76,593.81 1010.89,593.86 1011.86,594.44 1012.67,595.55"/>
    </edge>
    <edge id=":1321325636_0" function="internal">
        <lane id=":1321325636_0_0" index="0" disallow="tram rail_urban rail rail_electric ship" speed="13.89" length="6.29" shape="1021.51,605.22 1015.98,608.33"/>
        <lane id=":1321325636_0_1" index="1" disallow="tram rail_urban rail rail_electric ship" speed="13.89" length="6.29" shape="1019.90,602.45 1014.45,605.52"/>
    </edge>
    <edge id=":1321325636_2" function="internal">
        <lane id=":1321325636_2_0" index="0" disallow="tram rail_urban rail rail_electric ship" speed="5.08" length="5.05" shape="1015.68,601.25 1016.16,602.56 1016.11,603.71 1015.55,604.70 1014.45,605.52"/>
    </edge>
    <edge id=":1440831309_0" function="internal">
        <lane id=":1440831309_0_0" index="0" allow="delivery bicycle pedestrian" speed="3.65" length="4.67" shape="1003.49,687.22 1002.60,688.36 1001.78,688.71 1001.01,688.25 1000.29,687.00"/>
    </edge>
    <edge id=":1910176250_0" function="internal">
        <lane id=":1910176250_0_0" index="0" allow="delivery bicycle pedestrian" speed="5.03" length="5.01" shape="1041.46,627.32 1040.08,627.40 1039.07,627.90 1038.41,628.82 1038.12,630.16"/>
    </edge>
    <edge id=":1910176250_1" function="internal">
        <lane id=":1910176250_1_0" index="0" allow="delivery bicycle pedestrian" speed="5.56" length="10.16" shape="1041.46,627.32 1038.73,626.69 1036.86,625.36 1035.82,623.31 1035.64,620.55"/>
    </edge>
    <edge id=":1910176250_2" function="internal">
        <lane id=":1910176250_2_0" index="0" allow="delivery bicycle pedestrian" speed="3.65" length="4.67" shape="1041.46,627.32 1040.33,626.42 1040.00,625.59 1040.47,624.83 1041.73,624.14"/>
    </edge>
    <edge id=":1910176250_3" function="internal">
        <lane id=":1910176250_3_0" index="0" allow="delivery bicycle pedestrian" speed="5.08" length="5.04" shape="1038.83,620.79 1038.92,622.15 1039.44,623.16 1040.38,623.82 1041.73,624.14"/>
    </edge>
    <edge id=":1910176250_4" function="internal">
        <lane id=":1910176250_4_0" index="0" allow="delivery bicycle pedestrian" speed="5.56" length="9.40" shape="1038.83,620.79 1038.12,630.16"/>
    </edge>
    <edge id=":1910176250_5" function="internal">
        <lane id=":1910176250_5_0" index="0" allow="delivery bicycle pedestrian" speed="3.65" length="4.67" shape="1038.83,620.79 1037.94,621.92 1037.11,622.26 1036.34,621.80 1035.64,620.55"/>
    </edge>
    <edge id=":1910176250_6" function="internal">
        <lane id=":1910176250_6_0" index="0" allow="delivery bicycle pedestrian" speed="5.56" length="9.40" shape="1034.93,629.92 1035.64,620.55"/>
    </edge>
    <edge id=":1910176250_7" function="internal">
        <lane id=":1910176250_7_0" index="0" allow="delivery bicycle pedestrian" speed="5.56" length="10.21" shape="1034.93,629.92 1035.53,627.18 1036.87,625.31 1038.94,624.29 1041.73,624.14"/>
    </edge>
    <edge id=":1910176250_8" function="internal">
        <lane id=":1910176250_8_0" index="0" allow="delivery bicycle pedestrian" speed="3.65" length="4.67" shape="1034.93,629.92 1035.81,628.78 1036.64,628.44 1037.41,628.90 1038.12,630.16"/>
    </edge>
    <edge id=":1910176264_0" function="internal">
        <lane id=":1910176264_0_0" index="0" allow="delivery bicycle pedestrian" speed="3.65" length="4.67" shape="1034.67,676.07 1033.78,677.21 1032.95,677.55 1032.18,677.09 1031.47,675.83"/>
    </edge>
    <edge id=":1910194499_0" function="internal">
        <lane id=":1910194499_0_0" index="0" disallow="tram rail_urban rail rail_electric ship" speed="5.11" length="5.06" shape="995.92,622.46 995.11,621.31 994.14,620.68 993.01,620.56 991.71,620.96"/>
    </edge>
    <edge id=":1910194499_1" function="internal">
        <lane id=":1910194499_1_0" index="0" allow="delivery bicycle pedestrian" speed="3.65" length="4.67" shape="995.92,622.46 996.08,621.03 996.61,620.31 997.50,620.30 998.76,621.00"/>
    </edge>
    <edge id=":1910194499_2" function="internal">
        <lane id=":1910194499_2_0" index="0" allow="delivery bicycle pedestrian" speed="5.03" length="5.01" shape="1000.12,616.83 998.99,617.61 998.39,618.57 998.31,619.70 998.76,621.00"/>
    </edge>
    <edge id=":1910194499_3" function="internal">
        <lane id=":1910194499_3_0" index="0" disallow="tram rail_urban rail rail_electric ship" speed="13.89" length="9.33" shape="1000.12,616.83 991.71,620.96"/>
        <lane id=":1910194499_3_1" index="1" disallow="tram rail_urban rail rail_electric ship" speed="13.89" length="9.33" shape="998.67,613.97 990.33,618.08"/>
    </edge>
    <edge id=":21487168_0" function="internal">
        <lane id=":21487168_0_0" index="0" disallow="tram rail_urban rail rail_electric ship" speed="13.89" length="22.08" shape="1156.81,486.57 1160.32,492.03 1163.29,495.38 1166.83,498.24 1172.06,502.20"/>
    </edge>
    <edge id=":21487168_1" function="internal">
        <lane id=":21487168_1_0" index="0" disallow="tram rail_urban rail rail_electric ship" speed="13.89" length="22.39" shape="1156.81,486.57 1159.98,492.43 1162.15,496.54 1164.88,500.15 1169.79,504.49"/>
    </edge>
    <edge id=":21487168_2" function="internal">
        <lane id=":21487168_2_0" index="0" disallow="tram rail_urban rail rail_electric ship" speed="13.89" length="23.30" shape="1156.81,486.57 1159.67,492.89 1160.97,497.72 1162.88,502.03 1167.53,506.78"/>
    </edge>
    <edge id=":21487168_3" function="internal">
        <lane id=":21487168_3_0" index="0" disallow="tram rail_urban rail rail_electric ship" speed="13.89" length="23.48" shape="1156.81,486.57 1160.14,492.90 1161.57,497.64 1161.97,502.69 1162.22,509.95"/>
        <lane id=":21487168_3_1" index="1" disallow="tram rail_urban rail rail_electric ship" speed="13.89" length="23.48" shape="1154.05,488.20 1157.25,494.37 1158.56,499.01 1158.87,503.94 1159.08,511.02"/>
        <lane id=":21487168_3_2" index="2" disallow="tram rail_urban rail rail_electric ship" speed="13.89" length="23.48" shape="1151.30,489.83 1154.37,495.84 1155.55,500.37 1155.76,505.19 1155.93,512.09"/>
        <lane id=":21487168_3_3" index="3" disallow="tram rail_urban rail rail_electric ship" speed="13.89" length="23.48" shape="1148.54,491.45 1151.49,497.31 1152.55,501.73 1152.66,506.44 1152.78,513.15"/>
    </edge>
    <edge id=":251150126_0" function="internal">
        <lane id=":251150126_0_0" index="0" allow="delivery bicycle pedestrian" speed="9.72" length="18.27" shape="1193.29,513.87 1199.13,514.66 1203.77,514.42 1207.64,513.49 1211.17,512.21"/>
    </edge>
    <edge id=":251150126_1" function="internal">
        <lane id=":251150126_1_0" index="0" disallow="tram rail_urban rail rail_electric ship" speed="13.89" length="18.96" shape="1193.29,513.87 1198.69,514.91 1202.43,515.35 1206.20,515.57 1211.70,515.96"/>
        <lane id=":251150126_1_1" index="1" disallow="tram rail_urban rail rail_electric ship" speed="13.89" length="18.96" shape="1192.61,516.99 1198.13,518.06 1201.95,518.51 1205.80,518.75 1211.42,519.15"/>
        <lane id=":251150126_1_2" index="2" disallow="tram rail_urban rail rail_electric ship" speed="13.89" length="18.96" shape="1191.93,520.12 1197.57,521.21 1201.47,521.68 1205.40,521.92 1211.14,522.34"/>
    </edge>
    <edge id=":251150126_4" function="internal">
        <lane id=":251150126_4_0" index="0" allow="delivery bicycle pedestrian" speed="6.42" length="7.72" shape="1191.93,520.12 1194.54,520.87 1196.37,521.82 1197.43,522.97 1197.73,524.32"/>
    </edge>
    <edge id=":251150126_5" function="internal">
        <lane id=":251150126_5_0" index="0" allow="delivery bicycle pedestrian" speed="9.72" length="21.18" shape="1194.54,524.13 1195.70,521.26 1198.86,518.31 1204.02,515.30 1211.17,512.21"/>
    </edge>
    <edge id=":251150126_6" function="internal">
        <lane id=":251150126_6_0" index="0" disallow="tram rail_urban rail rail_electric ship" speed="9.12" length="19.16" shape="1194.54,524.13 1195.74,521.41 1198.95,519.67 1204.18,518.92 1211.42,519.15"/>
    </edge>
    <edge id=":251150126_7" function="internal">
        <lane id=":251150126_7_0" index="0" disallow="tram rail_urban rail rail_electric ship" speed="8.69" length="17.32" shape="1194.54,524.13 1195.65,522.81 1198.78,522.07 1203.95,521.91 1211.14,522.34"/>
    </edge>
    <edge id=":251150126_8" function="internal">
        <lane id=":251150126_8_0" index="0" allow="delivery bicycle pedestrian" speed="3.65" length="4.67" shape="1194.54,524.13 1195.41,522.98 1196.23,522.63 1197.01,523.07 1197.73,524.32"/>
    </edge>
    <edge id=":26704048_0" function="internal">
        <lane id=":26704048_0_0" index="0" disallow="tram rail_urban rail rail_electric ship" speed="13.89" length="5.66" shape="1132.10,427.77 1131.59,429.17 1131.61,430.25 1131.69,431.35 1131.34,432.82"/>
        <lane id=":26704048_0_1" index="1" disallow="tram rail_urban rail rail_electric ship" speed="13.89" length="5.66" shape="1132.10,427.77 1131.11,429.01 1130.12,429.65 1129.20,430.30 1128.37,431.63"/>
        <lane id=":26704048_0_2" index="2" disallow="tram rail_urban rail rail_electric ship" speed="13.89" length="5.66" shape="1129.29,426.23 1128.25,427.57 1127.23,428.27 1126.27,429.01 1125.40,430.43"/>
        <lane id=":26704048_0_3" index="3" disallow="tram rail_urban rail rail_electric ship" speed="13.89" length="5.66" shape="1126.49,424.68 1125.40,426.12 1124.34,426.90 1123.34,427.71 1122.44,429.24"/>
    </edge>
    <edge id=":26704628_0" function="internal">
        <lane id=":26704628_0_0" index="0" disallow="tram rail_urban rail rail_electric ship" speed="13.89" length="7.88" shape="1084.16,585.51 1081.74,585.73 1080.11,586.23 1078.48,586.68 1076.08,586.73"/>
        <lane id=":26704628_0_1" index="1" disallow="tram rail_urban rail rail_electric ship" speed="13.89" length="7.88" shape="1084.19,582.31 1081.85,582.53 1080.26,583.03 1078.68,583.48 1076.35,583.54"/>
        <lane id=":26704628_0_2" index="2" disallow="tram rail_urban rail rail_electric ship" speed="13.89" length="7.88" shape="1084.23,579.11 1081.95,579.33 1080.42,579.84 1078.88,580.29 1076.62,580.35"/>
        <lane id=":26704628_0_3" index="3" disallow="tram rail_urban rail rail_electric ship" speed="13.89" length="7.88" shape="1084.26,575.91 1082.05,576.13 1080.57,576.64 1079.09,577.09 1076.89,577.16"/>
    </edge>
    <edge id=":26938198_0" function="internal">
        <lane id=":26938198_0_0" index="0" disallow="tram rail_urban rail rail_electric ship" speed="4.98" length="5.07" shape="960.60,637.42 960.02,636.15 959.18,635.39 958.07,635.15 956.69,635.43"/>
    </edge>
    <edge id=":26938198_1" function="internal">
        <lane id=":26938198_1_0" index="0" allow="delivery bicycle pedestrian" speed="3.65" length="4.67" shape="960.60,637.42 961.03,636.04 961.69,635.44 962.57,635.59 963.67,636.52"/>
    </edge>
    <edge id=":26938198_2" function="internal">
        <lane id=":26938198_2_0" index="0" allow="delivery bicycle pedestrian" speed="5.32" length="5.29" shape="965.46,632.14 964.31,632.82 963.64,633.78 963.42,635.01 963.67,636.52"/>
    </edge>
    <edge id=":26938198_3" function="internal">
        <lane id=":26938198_3_0" index="0" disallow="tram rail_urban rail rail_electric ship" speed="13.89" length="9.31" shape="965.46,632.14 956.69,635.43"/>
        <lane id=":26938198_3_1" index="1" disallow="tram rail_urban rail rail_electric ship" speed="13.89" length="9.31" shape="964.28,629.16 955.62,632.42"/>
    </edge>
    <edge id=":26938199_0" function="internal">
        <lane id=":26938199_0_0" index="0" disallow="tram rail_urban rail rail_electric ship" speed="13.89" length="7.88" shape="953.63,615.24 955.64,614.23 956.83,613.17 957.99,612.06 959.94,610.89"/>
        <lane id=":26938199_0_1" index="1" disallow="tram rail_urban rail rail_electric ship" speed="13.89" length="7.88" shape="953.63,615.24 955.87,614.67 957.50,614.63 959.11,614.52 961.28,613.80"/>
        <lane id=":26938199_0_2" index="2" disallow="tram rail_urban rail rail_electric ship" speed="13.89" length="7.88" shape="954.74,618.24 957.05,617.65 958.72,617.58 960.38,617.46 962.62,616.71"/>
    </edge>
    <edge id=":26938207_0" function="internal">
        <lane id=":26938207_0_0" index="0" disallow="tram rail_urban rail rail_electric ship" speed="13.89" length="8.14" shape="1110.38,415.72 1111.69,413.75 1112.24,412.18 1112.78,410.60 1114.00,408.57"/>
        <lane id=":26938207_0_1" index="1" disallow="tram rail_urban rail rail_electric ship" speed="13.89" length="8.14" shape="1112.84,417.76 1114.17,415.76 1114.75,414.17 1115.30,412.56 1116.56,410.50"/>
    </edge>
    <edge id=":26938223_0" function="internal">
        <lane id=":26938223_0_0" index="0" allow="delivery bicycle pedestrian" speed="5.13" length="5.29" shape="984.86,521.48 983.33,521.51 982.20,521.98 981.47,522.88 981.14,524.22"/>
    </edge>
    <edge id=":26938223_1" function="internal">
        <lane id=":26938223_1_0" index="0" disallow="tram rail_urban rail rail_electric ship" speed="13.89" length="6.73" shape="984.86,521.48 978.31,520.86"/>
        <lane id=":26938223_1_1" index="1" disallow="tram rail_urban rail rail_electric ship" speed="13.89" length="6.73" shape="985.21,518.30 978.56,517.67"/>
        <lane id=":26938223_1_2" index="2" disallow="tram rail_urban rail rail_electric ship" speed="13.89" length="6.73" shape="985.56,515.12 978.80,514.48"/>
        <lane id=":26938223_1_3" index="3" disallow="tram rail_urban rail rail_electric ship" speed="13.89" length="6.73" shape="985.91,511.94 979.05,511.29"/>
    </edge>
    <edge id=":272365397_0" function="internal">
        <lane id=":272365397_0_0" index="0" allow="delivery bicycle pedestrian" speed="3.65" length="4.67" shape="1193.18,466.09 1192.19,467.15 1191.34,467.41 1190.61,466.89 1190.02,465.57"/>
    </edge>
    <edge id=":276913475_0" function="internal">
        <lane id=":276913475_0_0" index="0" disallow="tram rail_urban rail rail_electric ship" speed="4.68" length="5.83" shape="974.36,600.15 974.43,601.90 975.04,602.90 976.18,603.13 977.85,602.61"/>
    </edge>
    <edge id=":276913475_1" function="internal">
        <lane id=":276913475_1_0" index="0" disallow="tram rail_urban rail rail_electric ship" speed="13.89" length="6.72" shape="971.77,605.44 977.85,602.61"/>
        <lane id=":276913475_1_1" index="1" disallow="tram rail_urban rail rail_electric ship" speed="13.89" length="6.72" shape="973.11,608.34 979.20,605.51"/>
        <lane id=":276913475_1_2" index="2" disallow="tram rail_urban rail rail_electric ship" speed="13.89" length="6.72" shape="974.45,611.25 980.55,608.41"/>
    </edge>
    <edge id=":3639049534_0" function="internal">
        <lane id=":3639049534_0_0" index="0" allow="delivery bicycle pedestrian" speed="5.03" length="5.01" shape="1042.65,611.63 1041.27,611.71 1040.26,612.21 1039.60,613.13 1039.31,614.47"/>
    </edge>
    <edge id=":3639049534_1" function="internal">
        <lane id=":3639049534_1_0" index="0" allow="delivery bicycle pedestrian" speed="5.56" length="8.56" shape="1042.65,611.63 1040.14,611.25 1038.03,610.56 1036.33,609.57 1035.03,608.27"/>
    </edge>
    <edge id=":3639049534_2" function="internal">
        <lane id=":3639049534_2_0" index="0" allow="delivery bicycle pedestrian" speed="3.65" length="4.67" shape="1042.65,611.63 1041.52,610.73 1041.19,609.90 1041.65,609.14 1042.91,608.44"/>
    </edge>
    <edge id=":3639049534_3" function="internal">
        <lane id=":3639049534_3_0" index="0" allow="delivery bicycle pedestrian" speed="5.56" length="5.88" shape="1037.58,606.34 1038.41,607.13 1039.58,607.75 1041.08,608.18 1042.91,608.44"/>
    </edge>
    <edge id=":3639049534_4" function="internal">
        <lane id=":3639049534_4_0" index="0" allow="delivery bicycle pedestrian" speed="5.56" length="8.64" shape="1037.58,606.34 1038.95,608.43 1039.50,610.10 1039.52,611.92 1039.31,614.47"/>
    </edge>
    <edge id=":3639049534_5" function="internal">
        <lane id=":3639049534_5_0" index="0" allow="delivery bicycle pedestrian" speed="3.65" length="4.67" shape="1037.58,606.34 1037.67,607.78 1037.27,608.58 1036.39,608.75 1035.03,608.27"/>
    </edge>
    <edge id=":3639049534_6" function="internal">
        <lane id=":3639049534_6_0" index="0" allow="delivery bicycle pedestrian" speed="5.56" length="6.30" shape="1036.12,614.23 1036.30,612.37 1036.34,611.03 1036.00,609.80 1035.03,608.27"/>
    </edge>
    <edge id=":3639049534_7" function="internal">
        <lane id=":3639049534_7_0" index="0" allow="delivery bicycle pedestrian" speed="5.56" length="10.20" shape="1036.12,614.23 1036.72,611.50 1038.06,609.62 1040.12,608.60 1042.91,608.44"/>
    </edge>
    <edge id=":3639049534_8" function="internal">
        <lane id=":3639049534_8_0" index="0" allow="delivery bicycle pedestrian" speed="3.65" length="4.67" shape="1036.12,614.23 1037.01,613.10 1037.83,612.76 1038.60,613.22 1039.31,614.47"/>
    </edge>
    <edge id=":3648632499_0" function="internal">
        <lane id=":3648632499_0_0" index="0" allow="delivery bicycle pedestrian" speed="3.65" length="4.67" shape="1324.77,414.44 1323.89,415.59 1323.07,415.94 1322.30,415.49 1321.57,414.24"/>
    </edge>
    <edge id=":3657567939_0" function="internal">
        <lane id=":3657567939_0_0" index="0" allow="delivery bicycle pedestrian" speed="3.65" length="4.67" shape="974.03,661.21 973.93,662.65 973.43,663.39 972.53,663.44 971.25,662.79"/>
    </edge>
    <edge id=":3791061783_0" function="internal">
        <lane id=":3791061783_0_0" index="0" allow="bicycle" speed="8.33" length="5.00" width="1.00" shape="1053.12,441.79 1057.80,440.04"/>
    </edge>
    <edge id=":415838100_0" function="internal">
        <lane id=":415838100_0_0" index="0" disallow="tram rail_urban rail rail_electric ship" speed="13.89" length="9.40" shape="1199.93,536.62 1190.57,535.85"/>
        <lane id=":415838100_0_1" index="1" disallow="tram rail_urban rail rail_electric ship" speed="13.89" length="9.40" shape="1200.19,533.43 1190.83,532.66"/>
        <lane id=":415838100_0_2" index="2" disallow="tram rail_urban rail rail_electric ship" speed="13.89" length="9.40" shape="1200.45,530.24 1191.09,529.47"/>
    </edge>
    <edge id=":415838100_3" function="internal">
        <lane id=":415838100_3_0" index="0" allow="delivery bicycle pedestrian" speed="6.14" length="7.79" shape="1200.45,530.24 1197.73,529.82 1195.82,529.07 1194.71,527.99 1194.40,526.59"/>
    </edge>
    <edge id=":415838100_4" function="internal">
        <lane id=":415838100_4_0" index="0" disallow="tram rail_urban rail rail_electric ship" speed="6.84" length="10.27" shape="1197.59,526.78 1197.03,529.55 1195.71,531.45 1193.64,532.49 1190.83,532.66"/>
    </edge>
    <edge id=":415838100_5" function="internal">
        <lane id=":415838100_5_0" index="0" disallow="tram rail_urban rail rail_electric ship" speed="6.06" length="7.82" shape="1197.59,526.78 1197.11,528.15 1195.87,529.05 1193.86,529.49 1191.09,529.47"/>
    </edge>
    <edge id=":415838100_6" function="internal">
        <lane id=":415838100_6_0" index="0" allow="delivery bicycle pedestrian" speed="3.65" length="4.67" shape="1197.59,526.78 1196.72,527.93 1195.90,528.28 1195.12,527.84 1194.40,526.59"/>
    </edge>
    <edge id=":4911234302_0" function="internal">
        <lane id=":4911234302_0_0" index="0" disallow="tram rail_urban rail rail_electric ship" speed="6.84" length="6.55" shape="1631.93,547.84 1632.90,549.55 1634.01,550.79 1635.27,551.55 1636.69,551.84"/>
    </edge>
    <edge id=":4911234302_1" function="internal">
        <lane id=":4911234302_1_0" index="0" disallow="tram rail_urban rail rail_electric ship" speed="13.89" length="7.36" shape="1629.48,551.35 1636.69,551.84"/>
        <lane id=":4911234302_1_1" index="1" disallow="tram rail_urban rail rail_electric ship" speed="13.89" length="7.36" shape="1629.24,554.54 1636.58,555.04"/>
        <lane id=":4911234302_1_2" index="2" disallow="tram rail_urban rail rail_electric ship" speed="13.89" length="7.36" shape="1629.00,557.73 1636.47,558.24"/>
    </edge>
    <edge id=":4911322403_0" function="internal">
        <lane id=":4911322403_0_0" index="0" disallow="tram rail_urban rail rail_electric ship" speed="7.35" length="7.40" shape="1182.80,505.45 1183.07,506.67 1183.95,507.98 1185.43,509.36 1187.52,510.82"/>
    </edge>
    <edge id=":4911322403_1" function="internal">
        <lane id=":4911322403_1_0" index="0" allow="bicycle" speed="8.33" length="14.52" width="1.00" shape="1182.80,505.45 1181.99,519.94"/>
    </edge>
    <edge id=":4911322403_2" function="internal">
        <lane id=":4911322403_2_0" index="0" disallow="tram rail_urban rail rail_electric ship" speed="13.89" length="8.09" shape="1180.15,507.48 1186.93,511.75"/>
        <lane id=":4911322403_2_1" index="1" disallow="tram rail_urban rail rail_electric ship" speed="13.89" length="8.09" shape="1178.44,510.19 1185.31,514.52"/>
        <lane id=":4911322403_2_2" index="2" disallow="tram rail_urban rail rail_electric ship" speed="13.89" length="8.09" shape="1176.74,512.90 1183.61,517.23"/>
    </edge>
    <edge id=":4911322403_5" function="internal">
        <lane id=":4911322403_5_0" index="0" allow="bicycle" speed="7.91" length="8.72" width="1.00" shape="1176.15,513.82 1178.78,515.66 1180.63,517.29 1181.70,518.72 1181.99,519.94"/>
    </edge>
    <edge id=":4911322526_0" function="internal">
        <lane id=":4911322526_0_0" index="0" allow="bicycle" speed="8.33" length="5.12" width="1.00" shape="1184.43,497.04 1189.53,497.50"/>
    </edge>
    <edge id=":5350979716_0" function="internal">
        <lane id=":5350979716_0_0" index="0" allow="delivery bicycle pedestrian" speed="3.65" length="4.67" shape="1092.86,466.25 1091.90,467.34 1091.06,467.63 1090.32,467.12 1089.68,465.83"/>
    </edge>
    <edge id=":6225148089_0" function="internal">
        <lane id=":6225148089_0_0" index="0" disallow="tram rail_urban rail rail_electric ship" speed="13.89" length="5.00" shape="1148.87,397.25 1146.15,401.45"/>
        <lane id=":6225148089_0_1" index="1" disallow="tram rail_urban rail rail_electric ship" speed="13.89" length="5.00" shape="1146.19,395.51 1143.47,399.71"/>
        <lane id=":6225148089_0_2" index="2" disallow="tram rail_urban rail rail_electric ship" speed="13.89" length="5.00" shape="1143.50,393.77 1140.78,397.97"/>
    </edge>
    <edge id=":654381326_0" function="internal">
        <lane id=":654381326_0_0" index="0" allow="bicycle" speed="8.33" length="4.36" width="1.00" shape="1176.40,495.41 1177.46,496.11 1178.29,496.43 1179.19,496.55 1180.48,496.65"/>
    </edge>
    <edge id=":654381326_1" function="internal">
        <lane id=":654381326_1_0" index="0" allow="bicycle" speed="8.33" length="4.40" width="1.00" shape="1176.40,495.41 1177.44,496.20 1178.10,496.80 1178.70,497.47 1179.56,498.46"/>
    </edge>
    <edge id=":654381332_0" function="internal">
        <lane id=":654381332_0_0" index="0" disallow="tram rail_urban rail rail_electric ship" speed="13.89" length="4.00" shape="1187.25,511.95 1188.11,512.40 1188.76,512.58 1189.44,512.70 1190.39,512.97"/>
        <lane id=":654381332_0_1" index="1" disallow="tram rail_urban rail rail_electric ship" speed="13.89" length="4.00" shape="1185.55,514.66 1186.59,515.22 1187.36,515.47 1188.17,515.64 1189.30,515.98"/>
        <lane id=":654381332_0_2" index="2" disallow="tram rail_urban rail rail_electric ship" speed="13.89" length="4.00" shape="1183.85,517.38 1185.06,518.04 1185.95,518.35 1186.89,518.58 1188.21,518.99"/>
    </edge>
    <edge id=":654381347_0" function="internal">