<?xml version="1.0" encoding="UTF-8" standalone="no"?>
<additional>
    <tlLogic id="cluster_21487143_4911322575_654381305" offset="0" programID="cluster_1910176242_251106770_26938227_4911322574_654381302-cluster_21487143_4911322575_654381305" type="static">
        <phase duration="60" state="GGGGrrrrrr"/>
    </tlLogic>
    <tlLogic id="cluster_21487143_4911322575_654381305" offset="0" programID="1321325634-cluster_21487143_4911322575_654381305" type="static">
        <phase duration="60" state="rrrrGGGGrr"/>
    </tlLogic>
    <tlLogic id="cluster_21487143_4911322575_654381305" offset="0" programID="129621743" type="static">
        <phase duration="60" state="rrrrrrrrGG"/>
    </tlLogic>
    <timedEvent dest="localhost:9001" source="cluster_21487143_4911322575_654381305" type="SaveTLSStates"/>
    <tlLogic id="cluster_21487144_4911322569_654381390" offset="0" programID="25185005#0" type="static">
        <phase duration="60" state="rrrrrrGGGG"/>
    </tlLogic>
    <tlLogic id="cluster_21487144_4911322569_654381390" offset="0" programID="129621746#2" type="static">
        <phase duration="60" state="rrrrGGrrrr"/>
    </tlLogic>
    <tlLogic id="cluster_21487144_4911322569_654381390" offset="0" programID="1723927599-cluster_21487144_4911322569_654381390" type="static">
        <phase duration="60" state="GGGGrrrrrr"/>
    </tlLogic>
    <timedEvent dest="localhost:9001" source="cluster_21487144_4911322569_654381390" type="SaveTLSStates"/>
    <tlLogic id="cluster_21487142_251106773_251150123_26785753_4911322581_4911322583_667945032_667945033" offset="0" programID="1223838352-cluster_21487142_251106773_251150123_26785753_4911322581_4911322583_667945032_667945033" type="static">
        <phase duration="60" state="rrrrrGGGGGrrrr"/>
    </tlLogic>
    <tlLogic id="cluster_21487142_251106773_251150123_26785753_4911322581_4911322583_667945032_667945033" offset="0" programID="cluster_21487143_4911322575_654381305-cluster_21487142_251106773_251150123_26785753_4911322581_4911322583_667945032_667945033" type="static">
        <phase duration="60" state="GGGggrrrrrrrrr"/>
    </tlLogic>
    <tlLogic id="cluster_21487142_251106773_251150123_26785753_4911322581_4911322583_667945032_667945033" offset="0" programID="129621748#0" type="static">
        <phase duration="60" state="rrrrrrrrrrGGGG"/>
    </tlLogic>
    <timedEvent dest="localhost:9001" source="cluster_21487142_251106773_251150123_26785753_4911322581_4911322583_667945032_667945033" type="SaveTLSStates"/>
    <tlLogic id="joinedS_0" offset="0" programID="21487168-cluster_21487145_5313824950_654381359" type="static">
        <phase duration="60" state="rrrrrrrrrrrrrrrrrrrrrrGGGGrr"/>
    </tlLogic>
    <tlLogic id="joinedS_0" offset="0" programID="4911322403-654381332" type="static">
        <phase duration="60" state="rrGGGGGGGrrrrrrrrrrrrrrrrrrr"/>
    </tlLogic>
    <tlLogic id="joinedS_0" offset="0" programID="499958263#0" type="static">
        <phase duration="60" state="GGrrrrrrrrrrrrrrrrrrrrrrrrrr"/>
    </tlLogic>
    <tlLogic id="joinedS_0" offset="0" programID="129621746#0" type="static">
        <phase duration="60" state="rrrrrrrrrrrrrrrGGrrrrrrrrrrr"/>
    </tlLogic>
    <tlLogic id="joinedS_0" offset="0" programID="499958263#2" type="static">
        <phase duration="60" state="rrrrrrrrrrrrrrrrrrrrrrrrrrGG"/>
    </tlLogic>
    <tlLogic id="joinedS_0" offset="0" programID="cluster_21487145_5313824950_654381359-cluster_1656102229_21487148_4911322567_654381393" type="static">
        <phase duration="60" state="rrrrrrrrrGGGGGGrrrrrrrrrrrrr"/>
    </tlLogic>
    <tlLogic id="joinedS_0" offset="0" programID="21487168-4911322403" type="static">
        <phase duration="60" state="rrGGGGGGGrrrrrrrrrrrrrrrrrrr"/>
    </tlLogic>
    <tlLogic id="joinedS_0" offset="0" programID="415838100-cluster_21487145_5313824950_654381359" type="static">
        <phase duration="60" state="rrrrrrrrrrrrrrrrrGGGGGrrrrrr"/>
    </tlLogic>
    <timedEvent dest="localhost:9001" source="joinedS_0" type="SaveTLSStates"/>
    <tlLogic id="joinedS_1" offset="0" programID="cluster_26704584_3804638213-cluster_4912579007_654381284" type="static">
        <phase duration="60" state="rrrrrrrrrrrrrGGGG"/>
    </tlLogic>
    <tlLogic id="joinedS_1" offset="0" programID="171484595#1" type="static">
        <phase duration="60" state="rrrrrrrrrrrGGrrrr"/>
    </tlLogic>
    <tlLogic id="joinedS_1" offset="0" programID="cluster_26704584_3804638213-cluster_1560792368_21487146_654381313" type="static">
        <phase duration="60" state="rrrrrrrrGGGrrrrrr"/>
    </tlLogic>
    <tlLogic id="joinedS_1" offset="0" programID="171484595#3" type="static">
        <phase duration="60" state="rrrrrGGGrrrrrrrrr"/>
    </tlLogic>
    <tlLogic id="joinedS_1" offset="0" programID="26704048-cluster_1560792368_21487146_654381313" type="static">
        <phase duration="60" state="GGGGGrrrrrrrrrrrr"/>
    </tlLogic>
    <timedEvent dest="localhost:9001" source="joinedS_1" type="SaveTLSStates"/>
    <tlLogic id="cluster_1910176242_251106770_26938227_4911322574_654381302" offset="0" programID="129621746#3" type="static">
        <phase duration="60" state="rrGGGrrrrrrr"/>
    </tlLogic>
    <tlLogic id="cluster_1910176242_251106770_26938227_4911322574_654381302" offset="0" programID="-180596549" type="static">
        <phase duration="60" state="GGrrrrrrrrrr"/>
    </tlLogic>
    <tlLogic id="cluster_1910176242_251106770_26938227_4911322574_654381302" offset="0" programID="26704628-cluster_1910176242_251106770_26938227_4911322574_654381302" type="static">
        <phase duration="60" state="rrrrrGGGGGGG"/>
    </tlLogic>
    <timedEvent dest="localhost:9001" source="cluster_1910176242_251106770_26938227_4911322574_654381302" type="SaveTLSStates"/>
</additional>
