<additional xmlns:xsi="http://www.w3.org/2001/XMLSchema-instance" xsi:noNamespaceSchemaLocation="https://sumo.dlr.de/xsd/additional_file.xsd">
    <e1Detector file="localhost:9000" freq="10" friendlyPos="x" id="e1det_A0A1_0" lane="A0A1_0" pos="83.1"/>
    <e1Detector file="localhost:9000" freq="10" friendlyPos="x" id="e1det_A2A1_0" lane="A2A1_0" pos="83.1"/>
    <e1Detector file="localhost:9000" freq="10" friendlyPos="x" id="e1det_B1A1_0" lane="B1A1_0" pos="83.1"/>
    <e1Detector file="localhost:9000" freq="10" friendlyPos="x" id="e1det_N1A1_0" lane="N1A1_0" pos="90.3"/>
    <e1Detector file="localhost:9000" freq="10" friendlyPos="x" id="e1det_A0B0_0" lane="A0B0_0" pos="83.1"/>
    <e1Detector file="localhost:9000" freq="10" friendlyPos="x" id="e1det_B1B0_0" lane="B1B0_0" pos="83.1"/>
    <e1Detector file="localhost:9000" freq="10" friendlyPos="x" id="e1det_C0B0_0" lane="C0B0_0" pos="83.1"/>
    <e1Detector file="localhost:9000" freq="10" friendlyPos="x" id="e1det_A1A0_0" lane="A1A0_0" pos="83.1"/>
    <e1Detector file="localhost:9000" freq="10" friendlyPos="x" id="e1det_B0A0_0" lane="B0A0_0" pos="83.1"/>
    <e1Detector file="localhost:9000" freq="10" friendlyPos="x" id="e1det_N0A0_0" lane="N0A0_0" pos="90.3"/>
    <e1Detector file="localhost:9000" freq="10" friendlyPos="x" id="e1det_A1A2_0" lane="A1A2_0" pos="83.1"/>
    <e1Detector file="localhost:9000" freq="10" friendlyPos="x" id="e1det_A3A2_0" lane="A3A2_0" pos="83.1"/>
    <e1Detector file="localhost:9000" freq="10" friendlyPos="x" id="e1det_B2A2_0" lane="B2A2_0" pos="83.1"/>
    <e1Detector file="localhost:9000" freq="10" friendlyPos="x" id="e1det_N2A2_0" lane="N2A2_0" pos="90.3"/>
    <e1Detector file="localhost:9000" freq="10" friendlyPos="x" id="e1det_A1B1_0" lane="A1B1_0" pos="83.1"/>
    <e1Detector file="localhost:9000" freq="10" friendlyPos="x" id="e1det_B0B1_0" lane="B0B1_0" pos="83.1"/>
    <e1Detector file="localhost:9000" freq="10" friendlyPos="x" id="e1det_B2B1_0" lane="B2B1_0" pos="83.1"/>
    <e1Detector file="localhost:9000" freq="10" friendlyPos="x" id="e1det_C1B1_0" lane="C1B1_0" pos="83.1"/>
    <e1Detector file="localhost:9000" freq="10" friendlyPos="x" id="e1det_A2A3_0" lane="A2A3_0" pos="83.1"/>
    <e1Detector file="localhost:9000" freq="10" friendlyPos="x" id="e1det_A4A3_0" lane="A4A3_0" pos="83.1"/>
    <e1Detector file="localhost:9000" freq="10" friendlyPos="x" id="e1det_B3A3_0" lane="B3A3_0" pos="83.1"/>
    <e1Detector file="localhost:9000" freq="10" friendlyPos="x" id="e1det_N3A3_0" lane="N3A3_0" pos="90.3"/>
    <e1Detector file="localhost:9000" freq="10" friendlyPos="x" id="e1det_A2B2_0" lane="A2B2_0" pos="83.1"/>
    <e1Detector file="localhost:9000" freq="10" friendlyPos="x" id="e1det_B1B2_0" lane="B1B2_0" pos="83.1"/>
    <e1Detector file="localhost:9000" freq="10" friendlyPos="x" id="e1det_B3B2_0" lane="B3B2_0" pos="83.1"/>
    <e1Detector file="localhost:9000" freq="10" friendlyPos="x" id="e1det_C2B2_0" lane="C2B2_0" pos="83.1"/>
    <e1Detector file="localhost:9000" freq="10" friendlyPos="x" id="e1det_A3A4_0" lane="A3A4_0" pos="83.1"/>
    <e1Detector file="localhost:9000" freq="10" friendlyPos="x" id="e1det_B4A4_0" lane="B4A4_0" pos="83.1"/>
    <e1Detector file="localhost:9000" freq="10" friendlyPos="x" id="e1det_N4A4_0" lane="N4A4_0" pos="90.3"/>
    <e1Detector file="localhost:9000" freq="10" friendlyPos="x" id="e1det_A3B3_0" lane="A3B3_0" pos="83.1"/>
    <e1Detector file="localhost:9000" freq="10" friendlyPos="x" id="e1det_B2B3_0" lane="B2B3_0" pos="83.1"/>
    <e1Detector file="localhost:9000" freq="10" friendlyPos="x" id="e1det_B4B3_0" lane="B4B3_0" pos="83.1"/>
    <e1Detector file="localhost:9000" freq="10" friendlyPos="x" id="e1det_C3B3_0" lane="C3B3_0" pos="83.1"/>
    <e1Detector file="localhost:9000" freq="10" friendlyPos="x" id="e1det_A4B4_0" lane="A4B4_0" pos="83.1"/>
    <e1Detector file="localhost:9000" freq="10" friendlyPos="x" id="e1det_B3B4_0" lane="B3B4_0" pos="83.1"/>
    <e1Detector file="localhost:9000" freq="10" friendlyPos="x" id="e1det_C4B4_0" lane="C4B4_0" pos="83.1"/>
    <e1Detector file="localhost:9000" freq="10" friendlyPos="x" id="e1det_B0C0_0" lane="B0C0_0" pos="83.1"/>
    <e1Detector file="localhost:9000" freq="10" friendlyPos="x" id="e1det_C1C0_0" lane="C1C0_0" pos="83.1"/>
    <e1Detector file="localhost:9000" freq="10" friendlyPos="x" id="e1det_D0C0_0" lane="D0C0_0" pos="83.1"/>
    <e1Detector file="localhost:9000" freq="10" friendlyPos="x" id="e1det_B1C1_0" lane="B1C1_0" pos="83.1"/>
    <e1Detector file="localhost:9000" freq="10" friendlyPos="x" id="e1det_C0C1_0" lane="C0C1_0" pos="83.1"/>
    <e1Detector file="localhost:9000" freq="10" friendlyPos="x" id="e1det_C2C1_0" lane="C2C1_0" pos="83.1"/>
    <e1Detector file="localhost:9000" freq="10" friendlyPos="x" id="e1det_D1C1_0" lane="D1C1_0" pos="83.1"/>
    <e1Detector file="localhost:9000" freq="10" friendlyPos="x" id="e1det_B2C2_0" lane="B2C2_0" pos="83.1"/>
    <e1Detector file="localhost:9000" freq="10" friendlyPos="x" id="e1det_C1C2_0" lane="C1C2_0" pos="83.1"/>
    <e1Detector file="localhost:9000" freq="10" friendlyPos="x" id="e1det_C3C2_0" lane="C3C2_0" pos="83.1"/>
    <e1Detector file="localhost:9000" freq="10" friendlyPos="x" id="e1det_D2C2_0" lane="D2C2_0" pos="83.1"/>
    <e1Detector file="localhost:9000" freq="10" friendlyPos="x" id="e1det_B3C3_0" lane="B3C3_0" pos="83.1"/>
    <e1Detector file="localhost:9000" freq="10" friendlyPos="x" id="e1det_C2C3_0" lane="C2C3_0" pos="83.1"/>
    <e1Detector file="localhost:9000" freq="10" friendlyPos="x" id="e1det_C4C3_0" lane="C4C3_0" pos="83.1"/>
    <e1Detector file="localhost:9000" freq="10" friendlyPos="x" id="e1det_D3C3_0" lane="D3C3_0" pos="83.1"/>
    <e1Detector file="localhost:9000" freq="10" friendlyPos="x" id="e1det_B4C4_0" lane="B4C4_0" pos="83.1"/>
    <e1Detector file="localhost:9000" freq="10" friendlyPos="x" id="e1det_C3C4_0" lane="C3C4_0" pos="83.1"/>
    <e1Detector file="localhost:9000" freq="10" friendlyPos="x" id="e1det_D4C4_0" lane="D4C4_0" pos="83.1"/>
    <e1Detector file="localhost:9000" freq="10" friendlyPos="x" id="e1det_C0D0_0" lane="C0D0_0" pos="83.1"/>
    <e1Detector file="localhost:9000" freq="10" friendlyPos="x" id="e1det_D1D0_0" lane="D1D0_0" pos="83.1"/>
    <e1Detector file="localhost:9000" freq="10" friendlyPos="x" id="e1det_E0D0_0" lane="E0D0_0" pos="83.1"/>
    <e1Detector file="localhost:9000" freq="10" friendlyPos="x" id="e1det_C1D1_0" lane="C1D1_0" pos="83.1"/>
    <e1Detector file="localhost:9000" freq="10" friendlyPos="x" id="e1det_D0D1_0" lane="D0D1_0" pos="83.1"/>
    <e1Detector file="localhost:9000" freq="10" friendlyPos="x" id="e1det_D2D1_0" lane="D2D1_0" pos="83.1"/>
    <e1Detector file="localhost:9000" freq="10" friendlyPos="x" id="e1det_E1D1_0" lane="E1D1_0" pos="83.1"/>
    <e1Detector file="localhost:9000" freq="10" friendlyPos="x" id="e1det_C2D2_0" lane="C2D2_0" pos="83.1"/>
    <e1Detector file="localhost:9000" freq="10" friendlyPos="x" id="e1det_D1D2_0" lane="D1D2_0" pos="83.1"/>
    <e1Detector file="localhost:9000" freq="10" friendlyPos="x" id="e1det_D3D2_0" lane="D3D2_0" pos="83.1"/>
    <e1Detector file="localhost:9000" freq="10" friendlyPos="x" id="e1det_E2D2_0" lane="E2D2_0" pos="83.1"/>
    <e1Detector file="localhost:9000" freq="10" friendlyPos="x" id="e1det_C3D3_0" lane="C3D3_0" pos="83.1"/>
    <e1Detector file="localhost:9000" freq="10" friendlyPos="x" id="e1det_D2D3_0" lane="D2D3_0" pos="83.1"/>
    <e1Detector file="localhost:9000" freq="10" friendlyPos="x" id="e1det_D4D3_0" lane="D4D3_0" pos="83.1"/>
    <e1Detector file="localhost:9000" freq="10" friendlyPos="x" id="e1det_E3D3_0" lane="E3D3_0" pos="83.1"/>
    <e1Detector file="localhost:9000" freq="10" friendlyPos="x" id="e1det_C4D4_0" lane="C4D4_0" pos="83.1"/>
    <e1Detector file="localhost:9000" freq="10" friendlyPos="x" id="e1det_D3D4_0" lane="D3D4_0" pos="83.1"/>
    <e1Detector file="localhost:9000" freq="10" friendlyPos="x" id="e1det_E4D4_0" lane="E4D4_0" pos="83.1"/>
    <e1Detector file="localhost:9000" freq="10" friendlyPos="x" id="e1det_D0E0_0" lane="D0E0_0" pos="83.1"/>
    <e1Detector file="localhost:9000" freq="10" friendlyPos="x" id="e1det_E1E0_0" lane="E1E0_0" pos="83.1"/>
    <e1Detector file="localhost:9000" freq="10" friendlyPos="x" id="e1det_M0E0_0" lane="M0E0_0" pos="90.3"/>
    <e1Detector file="localhost:9000" freq="10" friendlyPos="x" id="e1det_D1E1_0" lane="D1E1_0" pos="83.1"/>
    <e1Detector file="localhost:9000" freq="10" friendlyPos="x" id="e1det_E0E1_0" lane="E0E1_0" pos="83.1"/>
    <e1Detector file="localhost:9000" freq="10" friendlyPos="x" id="e1det_E2E1_0" lane="E2E1_0" pos="83.1"/>
    <e1Detector file="localhost:9000" freq="10" friendlyPos="x" id="e1det_M1E1_0" lane="M1E1_0" pos="90.3"/>
    <e1Detector file="localhost:9000" freq="10" friendlyPos="x" id="e1det_D2E2_0" lane="D2E2_0" pos="83.1"/>
    <e1Detector file="localhost:9000" freq="10" friendlyPos="x" id="e1det_E1E2_0" lane="E1E2_0" pos="83.1"/>
    <e1Detector file="localhost:9000" freq="10" friendlyPos="x" id="e1det_E3E2_0" lane="E3E2_0" pos="83.1"/>
    <e1Detector file="localhost:9000" freq="10" friendlyPos="x" id="e1det_M2E2_0" lane="M2E2_0" pos="90.3"/>
    <e1Detector file="localhost:9000" freq="10" friendlyPos="x" id="e1det_D3E3_0" lane="D3E3_0" pos="83.1"/>
    <e1Detector file="localhost:9000" freq="10" friendlyPos="x" id="e1det_E2E3_0" lane="E2E3_0" pos="83.1"/>
    <e1Detector file="localhost:9000" freq="10" friendlyPos="x" id="e1det_E4E3_0" lane="E4E3_0" pos="83.1"/>
    <e1Detector file="localhost:9000" freq="10" friendlyPos="x" id="e1det_M3E3_0" lane="M3E3_0" pos="90.3"/>
    <e1Detector file="localhost:9000" freq="10" friendlyPos="x" id="e1det_D4E4_0" lane="D4E4_0" pos="83.1"/>
    <e1Detector file="localhost:9000" freq="10" friendlyPos="x" id="e1det_E3E4_0" lane="E3E4_0" pos="83.1"/>
    <e1Detector file="localhost:9000" freq="10" friendlyPos="x" id="e1det_M4E4_0" lane="M4E4_0" pos="90.3"/>
</additional>
