<?xml version="1.0" encoding="UTF-8"?>

<routes xmlns:xsi="http://www.w3.org/2001/XMLSchema-instance" xsi:noNamespaceSchemaLocation="http://sumo.dlr.de/xsd/routes_file.xsd">

    <vTypeDistribution id="passenger">
	<vType id="passenger#0" probability="0.25" width="1.8" length="4.3" maxSpeed="50" guiShape="passenger/sedan" minGap="2.5" accel="2.9" decel="4.5" height="1.5"/>
	<vType id="passenger#1" probability="0.25" width="1.8" length="4.3" maxSpeed="50" guiShape="passenger/hatchback" minGap="2.5" accel="2.9" decel="4.5" height="1.5"/>
	<vType id="passenger#2" probability="0.20" width="1.8" length="4.3" maxSpeed="50" guiShape="passenger/wagon" minGap="2.5" accel="2.9" decel="4.5" height="1.5"/>
	<vType id="passenger#3" probability="0.15" width="1.9" length="4.7" maxSpeed="50" guiShape="passenger/van" minGap="2.5" accel="2.9" decel="4.5" height="1.73"/>
	<vType id="passenger#4" probability="0.15" width="2.16" length="6.5" maxSpeed="50" guiShape="delivery" minGap="2.5" accel="2.9" decel="4.5" height="2.86"/>
    </vTypeDistribution>

    <vTypeDistribution id="motorcycle">
	<vType id="motorcycle#0" probability="0.15" width="1.8" length="2.2" maxSpeed="50" guiShape="motorcycle" minGap="2.5" accel="6" decel="4.5" height="1.5"/>
    </vTypeDistribution>

	<route id="N0M0" edges="N0A0 A0B0 B0C0 C0D0 D0E0 E0M0" />
	<route id="N1M1" edges="N1A1 A1B1 B1C1 C1D1 D1E1 E1M1" />
	<route id="N2M2" edges="N2A2 A2B2 B2C2 C2D2 D2E2 E2M2" />
	<route id="N3M3" edges="N3A3 A3B3 B3C3 C3D3 D3E3 E3M3" />
	<route id="N4M4" edges="N4A4 A4B4 B4C4 C4D4 D4E4 E4M4" />

	<vehicle id="v0" type="passenger" route="N0M0" depart="0"/>
	<vehicle id="v1" type="passenger" route="N1M1" depart="1"/>
	<vehicle id="v2" type="passenger" route="N2M2" depart="2"/>
	<vehicle id="v3" type="passenger" route="N3M3" depart="3"/>
	<vehicle id="v4" type="passenger" route="N4M4" depart="4"/>
	<vehicle id="v5" type="passenger" route="N0M0" depart="5"/>
	<vehicle id="v6" type="passenger" route="N1M1" depart="6"/>
	<vehicle id="v7" type="passenger" route="N2M2" depart="7"/>
	<vehicle id="v8" type="passenger" route="N3M3" depart="8"/>
	<vehicle id="v9" type="passenger" route="N4M4" depart="9"/>
</routes>
