<?xml version="1.0" encoding="iso-8859-1"?>
<configuration xmlns:xsi="http://www.w3.org/2001/XMLSchema-instance"
 xsi:noNamespaceSchemaLocation="http://sumo.dlr.de/xsd/sumoConfiguration.xsd">
    <input>
        <net-file value="grid-stretched.net.xml"/>
        <route-files value="grid-stretched.rou.xml"/>
	<additional-files value="tls.add.xml,e1detector.add.xml"/>
    <gui-settings-file value="settings.xml"/>
    </input>
    
    <time-to-teleport value="-1"/>
</configuration>

