<?xml version="1.0" encoding="UTF-8"?>

<!-- generated on Mo 16 Sep 2019 16:06:52 CEST by Eclipse SUMO GUI Version v1_1_0+1526-08c2293b1a
<configuration xmlns:xsi="http://www.w3.org/2001/XMLSchema-instance" xsi:noNamespaceSchemaLocation="http://sumo.dlr.de/xsd/sumoConfiguration.xsd">

    <input>
        <net-file value="/home/peter/master/modules/sumo-runner/grid-stretched/config/grid-stretched.net.xml"/>
        <route-files value="/home/peter/master/modules/sumo-runner/grid-stretched/config/grid-stretched.rou.xml"/>
        <additional-files value="/home/peter/master/modules/sumo-runner/grid-stretched/config/tls.add.xml,/home/peter/master/modules/sumo-runner/grid-stretched/config/e1detector.add.xml"/>
    </input>

    <time>
        <step-length value="0.1"/>
    </time>

    <processing>
        <time-to-teleport value="-1"/>
    </processing>

    <traci_server>
        <remote-port value="45499"/>
    </traci_server>

    <random_number>
        <seed value="0"/>
    </random_number>

    <gui_only>
        <gui-settings-file value="/home/peter/master/modules/sumo-runner/grid-stretched/config/settings.xml"/>
        <start value="true"/>
        <tracker-interval value="0.1"/>
    </gui_only>

</configuration>
-->

<tlsStates xmlns:xsi="http://www.w3.org/2001/XMLSchema-instance" xsi:noNamespaceSchemaLocation="http://sumo.dlr.de/xsd/tlsstates_file.xsd">
    <tlsState time="0.00" id="A0" programID="A1A0" phase="0" state="yyyrrr"/>
    <tlsState time="0.10" id="A0" programID="A1A0" phase="0" state="yyyrrr"/>
    <tlsState time="0.20" id="A0" programID="A1A0" phase="0" state="yyyrrr"/>
    <tlsState time="0.30" id="A0" programID="A1A0" phase="0" state="yyyrrr"/>
    <tlsState time="0.40" id="A0" programID="A1A0" phase="0" state="yyyrrr"/>
    <tlsState time="0.50" id="A0" programID="A1A0" phase="0" state="yyyrrr"/>
    <tlsState time="0.60" id="A0" programID="A1A0" phase="0" state="yyyrrr"/>
    <tlsState time="0.70" id="A0" programID="A1A0" phase="0" state="yyyrrr"/>
    <tlsState time="0.80" id="A0" programID="A1A0" phase="0" state="yyyrrr"/>
    <tlsState time="0.90" id="A0" programID="A1A0" phase="0" state="yyyrrr"/>
    <tlsState time="1.00" id="A0" programID="A1A0" phase="0" state="yyyrrr"/>
    <tlsState time="1.10" id="A0" programID="A1A0" phase="0" state="yyyrrr"/>
    <tlsState time="1.20" id="A0" programID="A1A0" phase="0" state="yyyrrr"/>
    <tlsState time="1.30" id="A0" programID="A1A0" phase="0" state="yyyrrr"/>
    <tlsState time="1.40" id="A0" programID="A1A0" phase="0" state="yyyrrr"/>
    <tlsState time="1.50" id="A0" programID="A1A0" phase="0" state="yyyrrr"/>
    <tlsState time="1.60" id="A0" programID="A1A0" phase="0" state="yyyrrr"/>
    <tlsState time="1.70" id="A0" programID="A1A0" phase="0" state="yyyrrr"/>
    <tlsState time="1.80" id="A0" programID="A1A0" phase="0" state="yyyrrr"/>
    <tlsState time="1.90" id="A0" programID="A1A0" phase="0" state="yyyrrr"/>
    <tlsState time="2.00" id="A0" programID="A1A0" phase="0" state="yyyrrr"/>
    <tlsState time="2.10" id="A0" programID="A1A0" phase="0" state="yyyrrr"/>
    <tlsState time="2.20" id="A0" programID="A1A0" phase="0" state="yyyrrr"/>
    <tlsState time="2.30" id="A0" programID="A1A0" phase="0" state="yyyrrr"/>
    <tlsState time="2.40" id="A0" programID="A1A0" phase="0" state="yyyrrr"/>
    <tlsState time="2.50" id="A0" programID="A1A0" phase="0" state="yyyrrr"/>
    <tlsState time="2.60" id="A0" programID="A1A0" phase="0" state="yyyrrr"/>
    <tlsState time="2.70" id="A0" programID="A1A0" phase="0" state="yyyrrr"/>
    <tlsState time="2.80" id="A0" programID="A1A0" phase="0" state="yyyrrr"/>
    <tlsState time="2.90" id="A0" programID="A1A0" phase="0" state="yyyrrr"/>
    <tlsState time="3.00" id="A0" programID="A1A0" phase="1" state="GGGrrr"/>
    <tlsState time="3.10" id="A0" programID="A1A0" phase="1" state="GGGrrr"/>
    <tlsState time="3.20" id="A0" programID="A1A0" phase="1" state="GGGrrr"/>
    <tlsState time="3.30" id="A0" programID="A1A0" phase="1" state="GGGrrr"/>
    <tlsState time="3.40" id="A0" programID="A1A0" phase="1" state="GGGrrr"/>
    <tlsState time="3.50" id="A0" programID="A1A0" phase="1" state="GGGrrr"/>
    <tlsState time="3.60" id="A0" programID="A1A0" phase="1" state="GGGrrr"/>
    <tlsState time="3.70" id="A0" programID="A1A0" phase="1" state="GGGrrr"/>
    <tlsState time="3.80" id="A0" programID="A1A0" phase="1" state="GGGrrr"/>
    <tlsState time="3.90" id="A0" programID="A1A0" phase="1" state="GGGrrr"/>
    <tlsState time="4.00" id="A0" programID="A1A0" phase="1" state="GGGrrr"/>
    <tlsState time="4.10" id="A0" programID="A1A0" phase="1" state="GGGrrr"/>
    <tlsState time="4.20" id="A0" programID="A1A0" phase="1" state="GGGrrr"/>
    <tlsState time="4.30" id="A0" programID="A1A0" phase="1" state="GGGrrr"/>
    <tlsState time="4.40" id="A0" programID="A1A0" phase="1" state="GGGrrr"/>
    <tlsState time="4.50" id="A0" programID="A1A0" phase="1" state="GGGrrr"/>
    <tlsState time="4.60" id="A0" programID="A1A0" phase="1" state="GGGrrr"/>
    <tlsState time="4.70" id="A0" programID="A1A0" phase="1" state="GGGrrr"/>
    <tlsState time="4.80" id="A0" programID="A1A0" phase="1" state="GGGrrr"/>
    <tlsState time="4.90" id="A0" programID="A1A0" phase="1" state="GGGrrr"/>
    <tlsState time="5.00" id="A0" programID="A1A0" phase="1" state="GGGrrr"/>
    <tlsState time="5.10" id="A0" programID="A1A0" phase="1" state="GGGrrr"/>
    <tlsState time="5.20" id="A0" programID="A1A0" phase="1" state="GGGrrr"/>
    <tlsState time="5.30" id="A0" programID="A1A0" phase="1" state="GGGrrr"/>
    <tlsState time="5.40" id="A0" programID="A1A0" phase="1" state="GGGrrr"/>
    <tlsState time="5.50" id="A0" programID="A1A0" phase="1" state="GGGrrr"/>
    <tlsState time="5.60" id="A0" programID="A1A0" phase="1" state="GGGrrr"/>
    <tlsState time="5.70" id="A0" programID="A1A0" phase="1" state="GGGrrr"/>
    <tlsState time="5.80" id="A0" programID="A1A0" phase="1" state="GGGrrr"/>
    <tlsState time="5.90" id="A0" programID="A1A0" phase="1" state="GGGrrr"/>
    <tlsState time="6.00" id="A0" programID="A1A0" phase="1" state="GGGrrr"/>
    <tlsState time="6.10" id="A0" programID="A1A0" phase="1" state="GGGrrr"/>
    <tlsState time="6.20" id="A0" programID="A1A0" phase="1" state="GGGrrr"/>
    <tlsState time="6.30" id="A0" programID="A1A0" phase="1" state="GGGrrr"/>
    <tlsState time="6.40" id="A0" programID="A1A0" phase="1" state="GGGrrr"/>
    <tlsState time="6.50" id="A0" programID="A1A0" phase="1" state="GGGrrr"/>
    <tlsState time="6.60" id="A0" programID="A1A0" phase="1" state="GGGrrr"/>
    <tlsState time="6.70" id="A0" programID="A1A0" phase="1" state="GGGrrr"/>
    <tlsState time="6.80" id="A0" programID="A1A0" phase="1" state="GGGrrr"/>
    <tlsState time="6.90" id="A0" programID="A1A0" phase="1" state="GGGrrr"/>
    <tlsState time="7.00" id="A0" programID="A1A0" phase="1" state="GGGrrr"/>
    <tlsState time="7.10" id="A0" programID="A1A0" phase="1" state="GGGrrr"/>
    <tlsState time="7.20" id="A0" programID="A1A0" phase="1" state="GGGrrr"/>
    <tlsState time="7.30" id="A0" programID="A1A0" phase="1" state="GGGrrr"/>
    <tlsState time="7.40" id="A0" programID="A1A0" phase="1" state="GGGrrr"/>
    <tlsState time="7.50" id="A0" programID="A1A0" phase="1" state="GGGrrr"/>
    <tlsState time="7.60" id="A0" programID="A1A0" phase="1" state="GGGrrr"/>
    <tlsState time="7.70" id="A0" programID="A1A0" phase="1" state="GGGrrr"/>
    <tlsState time="7.80" id="A0" programID="A1A0" phase="1" state="GGGrrr"/>
    <tlsState time="7.90" id="A0" programID="A1A0" phase="1" state="GGGrrr"/>
    <tlsState time="8.00" id="A0" programID="A1A0" phase="1" state="GGGrrr"/>
    <tlsState time="8.10" id="A0" programID="A1A0" phase="1" state="GGGrrr"/>
    <tlsState time="8.20" id="A0" programID="A1A0" phase="1" state="GGGrrr"/>
    <tlsState time="8.30" id="A0" programID="A1A0" phase="1" state="GGGrrr"/>
    <tlsState time="8.40" id="A0" programID="A1A0" phase="1" state="GGGrrr"/>
    <tlsState time="8.50" id="A0" programID="A1A0" phase="1" state="GGGrrr"/>
    <tlsState time="8.60" id="A0" programID="A1A0" phase="1" state="GGGrrr"/>
    <tlsState time="8.70" id="A0" programID="A1A0" phase="1" state="GGGrrr"/>
    <tlsState time="8.80" id="A0" programID="A1A0" phase="1" state="GGGrrr"/>
    <tlsState time="8.90" id="A0" programID="A1A0" phase="1" state="GGGrrr"/>
    <tlsState time="9.00" id="A0" programID="A1A0" phase="1" state="GGGrrr"/>
    <tlsState time="9.10" id="A0" programID="A1A0" phase="1" state="GGGrrr"/>
    <tlsState time="9.20" id="A0" programID="A1A0" phase="1" state="GGGrrr"/>
    <tlsState time="9.30" id="A0" programID="A1A0" phase="1" state="GGGrrr"/>
    <tlsState time="9.40" id="A0" programID="A1A0" phase="1" state="GGGrrr"/>
    <tlsState time="9.50" id="A0" programID="A1A0" phase="1" state="GGGrrr"/>
    <tlsState time="9.60" id="A0" programID="A1A0" phase="1" state="GGGrrr"/>
    <tlsState time="9.70" id="A0" programID="A1A0" phase="1" state="GGGrrr"/>
    <tlsState time="9.80" id="A0" programID="A1A0" phase="1" state="GGGrrr"/>
    <tlsState time="9.90" id="A0" programID="A1A0" phase="1" state="GGGrrr"/>
    <tlsState time="10.00" id="A0" programID="A1A0" phase="1" state="GGGrrr"/>
    <tlsState time="10.10" id="A0" programID="A1A0" phase="1" state="GGGrrr"/>
    <tlsState time="10.20" id="A0" programID="A1A0" phase="1" state="GGGrrr"/>
    <tlsState time="10.30" id="A0" programID="A1A0" phase="1" state="GGGrrr"/>
    <tlsState time="10.40" id="A0" programID="A1A0" phase="1" state="GGGrrr"/>
    <tlsState time="10.50" id="A0" programID="A1A0" phase="1" state="GGGrrr"/>
    <tlsState time="10.60" id="A0" programID="A1A0" phase="1" state="GGGrrr"/>
    <tlsState time="10.70" id="A0" programID="A1A0" phase="1" state="GGGrrr"/>
    <tlsState time="10.80" id="A0" programID="A1A0" phase="1" state="GGGrrr"/>
    <tlsState time="10.90" id="A0" programID="A1A0" phase="1" state="GGGrrr"/>
    <tlsState time="11.00" id="A0" programID="A1A0" phase="1" state="GGGrrr"/>
    <tlsState time="11.10" id="A0" programID="A1A0" phase="1" state="GGGrrr"/>
    <tlsState time="11.20" id="A0" programID="A1A0" phase="1" state="GGGrrr"/>
    <tlsState time="11.30" id="A0" programID="A1A0" phase="1" state="GGGrrr"/>
    <tlsState time="11.40" id="A0" programID="A1A0" phase="1" state="GGGrrr"/>
    <tlsState time="11.50" id="A0" programID="A1A0" phase="1" state="GGGrrr"/>
    <tlsState time="11.60" id="A0" programID="N0A0" phase="1" state="rrGGGg"/>
    <tlsState time="11.70" id="A0" programID="N0A0" phase="1" state="rrGGGg"/>
    <tlsState time="11.80" id="A0" programID="N0A0" phase="1" state="rrGGGg"/>
    <tlsState time="11.90" id="A0" programID="N0A0" phase="1" state="rrGGGg"/>
    <tlsState time="12.00" id="A0" programID="N0A0" phase="1" state="rrGGGg"/>
    <tlsState time="12.10" id="A0" programID="N0A0" phase="1" state="rrGGGg"/>
    <tlsState time="12.20" id="A0" programID="N0A0" phase="1" state="rrGGGg"/>
    <tlsState time="12.30" id="A0" programID="N0A0" phase="1" state="rrGGGg"/>
    <tlsState time="12.40" id="A0" programID="N0A0" phase="1" state="rrGGGg"/>
    <tlsState time="12.50" id="A0" programID="N0A0" phase="1" state="rrGGGg"/>
    <tlsState time="12.60" id="A0" programID="N0A0" phase="1" state="rrGGGg"/>
    <tlsState time="12.70" id="A0" programID="N0A0" phase="1" state="rrGGGg"/>
    <tlsState time="12.80" id="A0" programID="N0A0" phase="1" state="rrGGGg"/>
    <tlsState time="12.90" id="A0" programID="N0A0" phase="1" state="rrGGGg"/>
    <tlsState time="13.00" id="A0" programID="N0A0" phase="1" state="rrGGGg"/>
    <tlsState time="13.10" id="A0" programID="N0A0" phase="1" state="rrGGGg"/>
    <tlsState time="13.20" id="A0" programID="N0A0" phase="1" state="rrGGGg"/>
    <tlsState time="13.30" id="A0" programID="N0A0" phase="1" state="rrGGGg"/>
    <tlsState time="13.40" id="A0" programID="N0A0" phase="1" state="rrGGGg"/>
    <tlsState time="13.50" id="A0" programID="N0A0" phase="1" state="rrGGGg"/>
    <tlsState time="13.60" id="A0" programID="N0A0" phase="1" state="rrGGGg"/>
    <tlsState time="13.70" id="A0" programID="N0A0" phase="1" state="rrGGGg"/>
    <tlsState time="13.80" id="A0" programID="N0A0" phase="1" state="rrGGGg"/>
    <tlsState time="13.90" id="A0" programID="N0A0" phase="1" state="rrGGGg"/>
    <tlsState time="14.00" id="A0" programID="N0A0" phase="1" state="rrGGGg"/>
    <tlsState time="14.10" id="A0" programID="N0A0" phase="1" state="rrGGGg"/>
    <tlsState time="14.20" id="A0" programID="N0A0" phase="1" state="rrGGGg"/>
    <tlsState time="14.30" id="A0" programID="N0A0" phase="1" state="rrGGGg"/>
    <tlsState time="14.40" id="A0" programID="N0A0" phase="1" state="rrGGGg"/>
    <tlsState time="14.50" id="A0" programID="N0A0" phase="1" state="rrGGGg"/>
    <tlsState time="14.60" id="A0" programID="N0A0" phase="1" state="rrGGGg"/>
    <tlsState time="14.70" id="A0" programID="N0A0" phase="1" state="rrGGGg"/>
    <tlsState time="14.80" id="A0" programID="N0A0" phase="1" state="rrGGGg"/>
    <tlsState time="14.90" id="A0" programID="N0A0" phase="1" state="rrGGGg"/>
    <tlsState time="15.00" id="A0" programID="N0A0" phase="1" state="rrGGGg"/>
    <tlsState time="15.10" id="A0" programID="N0A0" phase="1" state="rrGGGg"/>
    <tlsState time="15.20" id="A0" programID="N0A0" phase="1" state="rrGGGg"/>
    <tlsState time="15.30" id="A0" programID="N0A0" phase="1" state="rrGGGg"/>
    <tlsState time="15.40" id="A0" programID="N0A0" phase="1" state="rrGGGg"/>
    <tlsState time="15.50" id="A0" programID="N0A0" phase="1" state="rrGGGg"/>
    <tlsState time="15.60" id="A0" programID="N0A0" phase="1" state="rrGGGg"/>
    <tlsState time="15.70" id="A0" programID="N0A0" phase="1" state="rrGGGg"/>
    <tlsState time="15.80" id="A0" programID="N0A0" phase="1" state="rrGGGg"/>
    <tlsState time="15.90" id="A0" programID="N0A0" phase="1" state="rrGGGg"/>
    <tlsState time="16.00" id="A0" programID="N0A0" phase="1" state="rrGGGg"/>
    <tlsState time="16.10" id="A0" programID="N0A0" phase="1" state="rrGGGg"/>
    <tlsState time="16.20" id="A0" programID="N0A0" phase="1" state="rrGGGg"/>
    <tlsState time="16.30" id="A0" programID="N0A0" phase="1" state="rrGGGg"/>
    <tlsState time="16.40" id="A0" programID="N0A0" phase="1" state="rrGGGg"/>
    <tlsState time="16.50" id="A0" programID="N0A0" phase="1" state="rrGGGg"/>
    <tlsState time="16.60" id="A0" programID="N0A0" phase="1" state="rrGGGg"/>
    <tlsState time="16.70" id="A0" programID="N0A0" phase="1" state="rrGGGg"/>
    <tlsState time="16.80" id="A0" programID="N0A0" phase="1" state="rrGGGg"/>
    <tlsState time="16.90" id="A0" programID="N0A0" phase="1" state="rrGGGg"/>
    <tlsState time="17.00" id="A0" programID="N0A0" phase="1" state="rrGGGg"/>
    <tlsState time="17.10" id="A0" programID="N0A0" phase="1" state="rrGGGg"/>
    <tlsState time="17.20" id="A0" programID="N0A0" phase="1" state="rrGGGg"/>
    <tlsState time="17.30" id="A0" programID="N0A0" phase="1" state="rrGGGg"/>
    <tlsState time="17.40" id="A0" programID="N0A0" phase="1" state="rrGGGg"/>
    <tlsState time="17.50" id="A0" programID="N0A0" phase="1" state="rrGGGg"/>
    <tlsState time="17.60" id="A0" programID="N0A0" phase="1" state="rrGGGg"/>
    <tlsState time="17.70" id="A0" programID="N0A0" phase="1" state="rrGGGg"/>
    <tlsState time="17.80" id="A0" programID="N0A0" phase="1" state="rrGGGg"/>
    <tlsState time="17.90" id="A0" programID="N0A0" phase="1" state="rrGGGg"/>
    <tlsState time="18.00" id="A0" programID="N0A0" phase="1" state="rrGGGg"/>
    <tlsState time="18.10" id="A0" programID="N0A0" phase="1" state="rrGGGg"/>
    <tlsState time="18.20" id="A0" programID="N0A0" phase="1" state="rrGGGg"/>
    <tlsState time="18.30" id="A0" programID="N0A0" phase="1" state="rrGGGg"/>
    <tlsState time="18.40" id="A0" programID="N0A0" phase="1" state="rrGGGg"/>
    <tlsState time="18.50" id="A0" programID="N0A0" phase="1" state="rrGGGg"/>
    <tlsState time="18.60" id="A0" programID="N0A0" phase="1" state="rrGGGg"/>
    <tlsState time="18.70" id="A0" programID="N0A0" phase="1" state="rrGGGg"/>
    <tlsState time="18.80" id="A0" programID="N0A0" phase="1" state="rrGGGg"/>
    <tlsState time="18.90" id="A0" programID="N0A0" phase="1" state="rrGGGg"/>
    <tlsState time="19.00" id="A0" programID="N0A0" phase="1" state="rrGGGg"/>
    <tlsState time="19.10" id="A0" programID="N0A0" phase="1" state="rrGGGg"/>
    <tlsState time="19.20" id="A0" programID="N0A0" phase="1" state="rrGGGg"/>
    <tlsState time="19.30" id="A0" programID="N0A0" phase="1" state="rrGGGg"/>
    <tlsState time="19.40" id="A0" programID="N0A0" phase="1" state="rrGGGg"/>
    <tlsState time="19.50" id="A0" programID="N0A0" phase="1" state="rrGGGg"/>
    <tlsState time="19.60" id="A0" programID="N0A0" phase="1" state="rrGGGg"/>
    <tlsState time="19.70" id="A0" programID="N0A0" phase="1" state="rrGGGg"/>
    <tlsState time="19.80" id="A0" programID="N0A0" phase="1" state="rrGGGg"/>
    <tlsState time="19.90" id="A0" programID="N0A0" phase="1" state="rrGGGg"/>
    <tlsState time="20.00" id="A0" programID="N0A0" phase="1" state="rrGGGg"/>
    <tlsState time="20.10" id="A0" programID="N0A0" phase="1" state="rrGGGg"/>
    <tlsState time="20.20" id="A0" programID="N0A0" phase="1" state="rrGGGg"/>
    <tlsState time="20.30" id="A0" programID="N0A0" phase="1" state="rrGGGg"/>
    <tlsState time="20.40" id="A0" programID="N0A0" phase="1" state="rrGGGg"/>
    <tlsState time="20.50" id="A0" programID="N0A0" phase="1" state="rrGGGg"/>
    <tlsState time="20.60" id="A0" programID="N0A0" phase="1" state="rrGGGg"/>
    <tlsState time="20.70" id="A0" programID="N0A0" phase="1" state="rrGGGg"/>
    <tlsState time="20.80" id="A0" programID="N0A0" phase="1" state="rrGGGg"/>
    <tlsState time="20.90" id="A0" programID="N0A0" phase="1" state="rrGGGg"/>
    <tlsState time="21.00" id="A0" programID="N0A0" phase="1" state="rrGGGg"/>
    <tlsState time="21.10" id="A0" programID="N0A0" phase="1" state="rrGGGg"/>
    <tlsState time="21.20" id="A0" programID="N0A0" phase="1" state="rrGGGg"/>
    <tlsState time="21.30" id="A0" programID="N0A0" phase="1" state="rrGGGg"/>
    <tlsState time="21.40" id="A0" programID="N0A0" phase="1" state="rrGGGg"/>
    <tlsState time="21.50" id="A0" programID="N0A0" phase="1" state="rrGGGg"/>
    <tlsState time="21.60" id="A0" programID="N0A0" phase="1" state="rrGGGg"/>
    <tlsState time="21.70" id="A0" programID="N0A0" phase="1" state="rrGGGg"/>
    <tlsState time="21.80" id="A0" programID="N0A0" phase="1" state="rrGGGg"/>
    <tlsState time="21.90" id="A0" programID="N0A0" phase="1" state="rrGGGg"/>
    <tlsState time="22.00" id="A0" programID="N0A0" phase="1" state="rrGGGg"/>
    <tlsState time="22.10" id="A0" programID="N0A0" phase="1" state="rrGGGg"/>
    <tlsState time="22.20" id="A0" programID="N0A0" phase="1" state="rrGGGg"/>
    <tlsState time="22.30" id="A0" programID="N0A0" phase="1" state="rrGGGg"/>
    <tlsState time="22.40" id="A0" programID="N0A0" phase="1" state="rrGGGg"/>
    <tlsState time="22.50" id="A0" programID="N0A0" phase="1" state="rrGGGg"/>
    <tlsState time="22.60" id="A0" programID="N0A0" phase="1" state="rrGGGg"/>
    <tlsState time="22.70" id="A0" programID="N0A0" phase="1" state="rrGGGg"/>
    <tlsState time="22.80" id="A0" programID="N0A0" phase="1" state="rrGGGg"/>
    <tlsState time="22.90" id="A0" programID="N0A0" phase="1" state="rrGGGg"/>
    <tlsState time="23.00" id="A0" programID="N0A0" phase="1" state="rrGGGg"/>
    <tlsState time="23.10" id="A0" programID="N0A0" phase="1" state="rrGGGg"/>
    <tlsState time="23.20" id="A0" programID="N0A0" phase="1" state="rrGGGg"/>
    <tlsState time="23.30" id="A0" programID="N0A0" phase="1" state="rrGGGg"/>
    <tlsState time="23.40" id="A0" programID="N0A0" phase="1" state="rrGGGg"/>
    <tlsState time="23.50" id="A0" programID="N0A0" phase="1" state="rrGGGg"/>
    <tlsState time="23.60" id="A0" programID="N0A0" phase="1" state="rrGGGg"/>
    <tlsState time="23.70" id="A0" programID="N0A0" phase="1" state="rrGGGg"/>
    <tlsState time="23.80" id="A0" programID="N0A0" phase="1" state="rrGGGg"/>
    <tlsState time="23.90" id="A0" programID="N0A0" phase="1" state="rrGGGg"/>
    <tlsState time="24.00" id="A0" programID="N0A0" phase="1" state="rrGGGg"/>
    <tlsState time="24.10" id="A0" programID="N0A0" phase="1" state="rrGGGg"/>
    <tlsState time="24.20" id="A0" programID="N0A0" phase="1" state="rrGGGg"/>
    <tlsState time="24.30" id="A0" programID="N0A0" phase="1" state="rrGGGg"/>
    <tlsState time="24.40" id="A0" programID="N0A0" phase="1" state="rrGGGg"/>
    <tlsState time="24.50" id="A0" programID="N0A0" phase="1" state="rrGGGg"/>
    <tlsState time="24.60" id="A0" programID="N0A0" phase="1" state="rrGGGg"/>
    <tlsState time="24.70" id="A0" programID="N0A0" phase="1" state="rrGGGg"/>
    <tlsState time="24.80" id="A0" programID="N0A0" phase="1" state="rrGGGg"/>
    <tlsState time="24.90" id="A0" programID="N0A0" phase="1" state="rrGGGg"/>
    <tlsState time="25.00" id="A0" programID="N0A0" phase="1" state="rrGGGg"/>
    <tlsState time="25.10" id="A0" programID="N0A0" phase="1" state="rrGGGg"/>
    <tlsState time="25.20" id="A0" programID="N0A0" phase="1" state="rrGGGg"/>
    <tlsState time="25.30" id="A0" programID="N0A0" phase="1" state="rrGGGg"/>
    <tlsState time="25.40" id="A0" programID="N0A0" phase="1" state="rrGGGg"/>
    <tlsState time="25.50" id="A0" programID="N0A0" phase="1" state="rrGGGg"/>
    <tlsState time="25.60" id="A0" programID="N0A0" phase="1" state="rrGGGg"/>
    <tlsState time="25.70" id="A0" programID="N0A0" phase="1" state="rrGGGg"/>
    <tlsState time="25.80" id="A0" programID="N0A0" phase="1" state="rrGGGg"/>
    <tlsState time="25.90" id="A0" programID="N0A0" phase="1" state="rrGGGg"/>
    <tlsState time="26.00" id="A0" programID="N0A0" phase="1" state="rrGGGg"/>
    <tlsState time="26.10" id="A0" programID="N0A0" phase="1" state="rrGGGg"/>
    <tlsState time="26.20" id="A0" programID="N0A0" phase="1" state="rrGGGg"/>
    <tlsState time="26.30" id="A0" programID="N0A0" phase="1" state="rrGGGg"/>
    <tlsState time="26.40" id="A0" programID="N0A0" phase="1" state="rrGGGg"/>
    <tlsState time="26.50" id="A0" programID="N0A0" phase="1" state="rrGGGg"/>
    <tlsState time="26.60" id="A0" programID="N0A0" phase="1" state="rrGGGg"/>
    <tlsState time="26.70" id="A0" programID="N0A0" phase="1" state="rrGGGg"/>
    <tlsState time="26.80" id="A0" programID="N0A0" phase="1" state="rrGGGg"/>
    <tlsState time="26.90" id="A0" programID="N0A0" phase="1" state="rrGGGg"/>
    <tlsState time="27.00" id="A0" programID="N0A0" phase="1" state="rrGGGg"/>
    <tlsState time="27.10" id="A0" programID="N0A0" phase="1" state="rrGGGg"/>
    <tlsState time="27.20" id="A0" programID="N0A0" phase="1" state="rrGGGg"/>
    <tlsState time="27.30" id="A0" programID="N0A0" phase="1" state="rrGGGg"/>
    <tlsState time="27.40" id="A0" programID="N0A0" phase="1" state="rrGGGg"/>
    <tlsState time="27.50" id="A0" programID="N0A0" phase="1" state="rrGGGg"/>
    <tlsState time="27.60" id="A0" programID="N0A0" phase="1" state="rrGGGg"/>
    <tlsState time="27.70" id="A0" programID="N0A0" phase="1" state="rrGGGg"/>
    <tlsState time="27.80" id="A0" programID="N0A0" phase="1" state="rrGGGg"/>
    <tlsState time="27.90" id="A0" programID="N0A0" phase="1" state="rrGGGg"/>
    <tlsState time="28.00" id="A0" programID="N0A0" phase="1" state="rrGGGg"/>
    <tlsState time="28.10" id="A0" programID="N0A0" phase="1" state="rrGGGg"/>
    <tlsState time="28.20" id="A0" programID="N0A0" phase="1" state="rrGGGg"/>
    <tlsState time="28.30" id="A0" programID="N0A0" phase="1" state="rrGGGg"/>
    <tlsState time="28.40" id="A0" programID="N0A0" phase="1" state="rrGGGg"/>
    <tlsState time="28.50" id="A0" programID="N0A0" phase="1" state="rrGGGg"/>
    <tlsState time="28.60" id="A0" programID="N0A0" phase="1" state="rrGGGg"/>
    <tlsState time="28.70" id="A0" programID="N0A0" phase="1" state="rrGGGg"/>
    <tlsState time="28.80" id="A0" programID="N0A0" phase="1" state="rrGGGg"/>
    <tlsState time="28.90" id="A0" programID="N0A0" phase="1" state="rrGGGg"/>
    <tlsState time="29.00" id="A0" programID="N0A0" phase="1" state="rrGGGg"/>
    <tlsState time="29.10" id="A0" programID="N0A0" phase="1" state="rrGGGg"/>
    <tlsState time="29.20" id="A0" programID="N0A0" phase="1" state="rrGGGg"/>
    <tlsState time="29.30" id="A0" programID="N0A0" phase="1" state="rrGGGg"/>
    <tlsState time="29.40" id="A0" programID="N0A0" phase="1" state="rrGGGg"/>
    <tlsState time="29.50" id="A0" programID="N0A0" phase="1" state="rrGGGg"/>
    <tlsState time="29.60" id="A0" programID="N0A0" phase="1" state="rrGGGg"/>
    <tlsState time="29.70" id="A0" programID="N0A0" phase="1" state="rrGGGg"/>
    <tlsState time="29.80" id="A0" programID="N0A0" phase="1" state="rrGGGg"/>
    <tlsState time="29.90" id="A0" programID="N0A0" phase="1" state="rrGGGg"/>
    <tlsState time="30.00" id="A0" programID="N0A0" phase="1" state="rrGGGg"/>
    <tlsState time="30.10" id="A0" programID="N0A0" phase="1" state="rrGGGg"/>
    <tlsState time="30.20" id="A0" programID="N0A0" phase="1" state="rrGGGg"/>
    <tlsState time="30.30" id="A0" programID="N0A0" phase="1" state="rrGGGg"/>
    <tlsState time="30.40" id="A0" programID="N0A0" phase="1" state="rrGGGg"/>
    <tlsState time="30.50" id="A0" programID="N0A0" phase="1" state="rrGGGg"/>
    <tlsState time="30.60" id="A0" programID="N0A0" phase="1" state="rrGGGg"/>
    <tlsState time="30.70" id="A0" programID="N0A0" phase="1" state="rrGGGg"/>
    <tlsState time="30.80" id="A0" programID="N0A0" phase="1" state="rrGGGg"/>
    <tlsState time="30.90" id="A0" programID="N0A0" phase="1" state="rrGGGg"/>
    <tlsState time="31.00" id="A0" programID="N0A0" phase="1" state="rrGGGg"/>
    <tlsState time="31.10" id="A0" programID="N0A0" phase="1" state="rrGGGg"/>
    <tlsState time="31.20" id="A0" programID="N0A0" phase="1" state="rrGGGg"/>
    <tlsState time="31.30" id="A0" programID="N0A0" phase="1" state="rrGGGg"/>
    <tlsState time="31.40" id="A0" programID="N0A0" phase="1" state="rrGGGg"/>
    <tlsState time="31.50" id="A0" programID="N0A0" phase="1" state="rrGGGg"/>
    <tlsState time="31.60" id="A0" programID="N0A0" phase="1" state="rrGGGg"/>
    <tlsState time="31.70" id="A0" programID="N0A0" phase="1" state="rrGGGg"/>
    <tlsState time="31.80" id="A0" programID="N0A0" phase="1" state="rrGGGg"/>
    <tlsState time="31.90" id="A0" programID="N0A0" phase="1" state="rrGGGg"/>
    <tlsState time="32.00" id="A0" programID="N0A0" phase="1" state="rrGGGg"/>
    <tlsState time="32.10" id="A0" programID="N0A0" phase="1" state="rrGGGg"/>
    <tlsState time="32.20" id="A0" programID="N0A0" phase="1" state="rrGGGg"/>
    <tlsState time="32.30" id="A0" programID="N0A0" phase="1" state="rrGGGg"/>
    <tlsState time="32.40" id="A0" programID="N0A0" phase="1" state="rrGGGg"/>
    <tlsState time="32.50" id="A0" programID="N0A0" phase="1" state="rrGGGg"/>
    <tlsState time="32.60" id="A0" programID="N0A0" phase="1" state="rrGGGg"/>
    <tlsState time="32.70" id="A0" programID="N0A0" phase="1" state="rrGGGg"/>
    <tlsState time="32.80" id="A0" programID="N0A0" phase="1" state="rrGGGg"/>
    <tlsState time="32.90" id="A0" programID="N0A0" phase="1" state="rrGGGg"/>
    <tlsState time="33.00" id="A0" programID="N0A0" phase="1" state="rrGGGg"/>
    <tlsState time="33.10" id="A0" programID="N0A0" phase="1" state="rrGGGg"/>
    <tlsState time="33.20" id="A0" programID="N0A0" phase="1" state="rrGGGg"/>
    <tlsState time="33.30" id="A0" programID="N0A0" phase="1" state="rrGGGg"/>
    <tlsState time="33.40" id="A0" programID="N0A0" phase="1" state="rrGGGg"/>
    <tlsState time="33.50" id="A0" programID="N0A0" phase="1" state="rrGGGg"/>
    <tlsState time="33.60" id="A0" programID="N0A0" phase="1" state="rrGGGg"/>
    <tlsState time="33.70" id="A0" programID="N0A0" phase="1" state="rrGGGg"/>
    <tlsState time="33.80" id="A0" programID="N0A0" phase="1" state="rrGGGg"/>
    <tlsState time="33.90" id="A0" programID="N0A0" phase="1" state="rrGGGg"/>
    <tlsState time="34.00" id="A0" programID="N0A0" phase="1" state="rrGGGg"/>
    <tlsState time="34.10" id="A0" programID="N0A0" phase="1" state="rrGGGg"/>
    <tlsState time="34.20" id="A0" programID="N0A0" phase="1" state="rrGGGg"/>
    <tlsState time="34.30" id="A0" programID="N0A0" phase="1" state="rrGGGg"/>
    <tlsState time="34.40" id="A0" programID="N0A0" phase="1" state="rrGGGg"/>
    <tlsState time="34.50" id="A0" programID="N0A0" phase="1" state="rrGGGg"/>
    <tlsState time="34.60" id="A0" programID="N0A0" phase="1" state="rrGGGg"/>
    <tlsState time="34.70" id="A0" programID="N0A0" phase="1" state="rrGGGg"/>
    <tlsState time="34.80" id="A0" programID="N0A0" phase="1" state="rrGGGg"/>
    <tlsState time="34.90" id="A0" programID="N0A0" phase="1" state="rrGGGg"/>
    <tlsState time="35.00" id="A0" programID="N0A0" phase="1" state="rrGGGg"/>
    <tlsState time="35.10" id="A0" programID="N0A0" phase="1" state="rrGGGg"/>
    <tlsState time="35.20" id="A0" programID="N0A0" phase="1" state="rrGGGg"/>
    <tlsState time="35.30" id="A0" programID="N0A0" phase="1" state="rrGGGg"/>
    <tlsState time="35.40" id="A0" programID="N0A0" phase="1" state="rrGGGg"/>
    <tlsState time="35.50" id="A0" programID="N0A0" phase="1" state="rrGGGg"/>
    <tlsState time="35.60" id="A0" programID="N0A0" phase="1" state="rrGGGg"/>
    <tlsState time="35.70" id="A0" programID="N0A0" phase="1" state="rrGGGg"/>
    <tlsState time="35.80" id="A0" programID="N0A0" phase="1" state="rrGGGg"/>
    <tlsState time="35.90" id="A0" programID="N0A0" phase="1" state="rrGGGg"/>
    <tlsState time="36.00" id="A0" programID="N0A0" phase="1" state="rrGGGg"/>
    <tlsState time="36.10" id="A0" programID="N0A0" phase="1" state="rrGGGg"/>
    <tlsState time="36.20" id="A0" programID="N0A0" phase="1" state="rrGGGg"/>