<?xml version="1.0" encoding="UTF-8" standalone="no"?>
<additional>
    <tlLogic id="A0" offset="0" programID="A1A0" type="static">
        <phase duration="60" state="GGrrrr"/>
    </tlLogic>
    <tlLogic id="A0" offset="0" programID="B0A0" type="static">
        <phase duration="60" state="rrGGGr"/>
    </tlLogic>
    <tlLogic id="A0" offset="0" programID="N0A0" type="static">
        <phase duration="60" state="rrrrGG"/>
    </tlLogic>
    <timedEvent dest="localhost:9001" source="A0" type="SaveTLSStates"/>
    <tlLogic id="A2" offset="0" programID="N2A2" type="static">
        <phase duration="60" state="rrrrGGgGrrrrGGg"/>
    </tlLogic>
    <tlLogic id="A2" offset="0" programID="A3A2" type="static">
        <phase duration="60" state="GGgGrrrrGGgGrrr"/>
    </tlLogic>
    <tlLogic id="A2" offset="0" programID="A1A2" type="static">
        <phase duration="60" state="GGgGrrrrGGgGrrr"/>
    </tlLogic>
    <tlLogic id="A2" offset="0" programID="B2A2" type="static">
        <phase duration="60" state="rrrrGGgGrrrrGGg"/>
    </tlLogic>
    <timedEvent dest="localhost:9001" source="A2" type="SaveTLSStates"/>
    <tlLogic id="A3" offset="0" programID="N3A3" type="static">
        <phase duration="60" state="rrrrGGgGrrrrGGg"/>
    </tlLogic>
    <tlLogic id="A3" offset="0" programID="A4A3" type="static">
        <phase duration="60" state="GGgGrrrrGGgGrrr"/>
    </tlLogic>
    <tlLogic id="A3" offset="0" programID="A2A3" type="static">
        <phase duration="60" state="GGgGrrrrGGgGrrr"/>
    </tlLogic>
    <tlLogic id="A3" offset="0" programID="B3A3" type="static">
        <phase duration="60" state="rrrrGGgGrrrrGGg"/>
    </tlLogic>
    <timedEvent dest="localhost:9001" source="A3" type="SaveTLSStates"/>
    <tlLogic id="C1" offset="0" programID="C2C1" type="static">
        <phase duration="60" state="GGgGrrrrGGgGrrrr"/>
    </tlLogic>
    <tlLogic id="C1" offset="0" programID="B1C1" type="static">
        <phase duration="60" state="rrrrGGgGrrrrGGgG"/>
    </tlLogic>
    <tlLogic id="C1" offset="0" programID="C0C1" type="static">
        <phase duration="60" state="GGgGrrrrGGgGrrrr"/>
    </tlLogic>
    <tlLogic id="C1" offset="0" programID="D1C1" type="static">
        <phase duration="60" state="rrrrGGgGrrrrGGgG"/>
    </tlLogic>
    <timedEvent dest="localhost:9001" source="C1" type="SaveTLSStates"/>
    <tlLogic id="B3" offset="0" programID="A3B3" type="static">
        <phase duration="60" state="rrrrGGgGrrrrGGgG"/>
    </tlLogic>
    <tlLogic id="B3" offset="0" programID="B4B3" type="static">
        <phase duration="60" state="GGgGrrrrGGgGrrrr"/>
    </tlLogic>
    <tlLogic id="B3" offset="0" programID="C3B3" type="static">
        <phase duration="60" state="rrrrGGgGrrrrGGgG"/>
    </tlLogic>
    <tlLogic id="B3" offset="0" programID="B2B3" type="static">
        <phase duration="60" state="GGgGrrrrGGgGrrrr"/>
    </tlLogic>
    <timedEvent dest="localhost:9001" source="B3" type="SaveTLSStates"/>
    <tlLogic id="D0" offset="0" programID="C0D0" type="static">
        <phase duration="60" state="rrrrGrGGG"/>
    </tlLogic>
    <tlLogic id="D0" offset="0" programID="D1D0" type="static">
        <phase duration="60" state="GGGrrrrrr"/>
    </tlLogic>
    <tlLogic id="D0" offset="0" programID="E0D0" type="static">
        <phase duration="60" state="rrrGGGGrr"/>
    </tlLogic>
    <timedEvent dest="localhost:9001" source="D0" type="SaveTLSStates"/>
    <tlLogic id="C2" offset="0" programID="C3C2" type="static">
        <phase duration="60" state="GGgGrrrrGGgGrrrr"/>
    </tlLogic>
    <tlLogic id="C2" offset="0" programID="B2C2" type="static">
        <phase duration="60" state="rrrrGGgGrrrrGGgG"/>
    </tlLogic>
    <tlLogic id="C2" offset="0" programID="C1C2" type="static">
        <phase duration="60" state="GGgGrrrrGGgGrrrr"/>
    </tlLogic>
    <tlLogic id="C2" offset="0" programID="D2C2" type="static">
        <phase duration="60" state="rrrrGGgGrrrrGGgG"/>
    </tlLogic>
    <timedEvent dest="localhost:9001" source="C2" type="SaveTLSStates"/>
    <tlLogic id="B2" offset="0" programID="C2B2" type="static">
        <phase duration="60" state="rrrrGGgGrrrrGGgG"/>
    </tlLogic>
    <tlLogic id="B2" offset="0" programID="B1B2" type="static">
        <phase duration="60" state="GGgGrrrrGGgGrrrr"/>
    </tlLogic>
    <tlLogic id="B2" offset="0" programID="A2B2" type="static">
        <phase duration="60" state="rrrrGGgGrrrrGGgG"/>
    </tlLogic>
    <tlLogic id="B2" offset="0" programID="B3B2" type="static">
        <phase duration="60" state="GGgGrrrrGGgGrrrr"/>
    </tlLogic>
    <timedEvent dest="localhost:9001" source="B2" type="SaveTLSStates"/>
    <tlLogic id="C4" offset="0" programID="B4C4" type="static">
        <phase duration="60" state="GrrrrrGGG"/>
    </tlLogic>
    <tlLogic id="C4" offset="0" programID="C3C4" type="static">
        <phase duration="60" state="rrrGGGrrr"/>
    </tlLogic>
    <tlLogic id="C4" offset="0" programID="D4C4" type="static">
        <phase duration="60" state="GGGrrrrGr"/>
    </tlLogic>
    <timedEvent dest="localhost:9001" source="C4" type="SaveTLSStates"/>
    <tlLogic id="C0" offset="0" programID="C1C0" type="static">
        <phase duration="60" state="GGGrrrrrr"/>
    </tlLogic>
    <tlLogic id="C0" offset="0" programID="B0C0" type="static">
        <phase duration="60" state="rrrrGrGGG"/>
    </tlLogic>
    <tlLogic id="C0" offset="0" programID="D0C0" type="static">
        <phase duration="60" state="rrrGGGGrr"/>
    </tlLogic>
    <timedEvent dest="localhost:9001" source="C0" type="SaveTLSStates"/>
    <tlLogic id="C3" offset="0" programID="C2C3" type="static">
        <phase duration="60" state="GGgGrrrrGGgGrrrr"/>
    </tlLogic>
    <tlLogic id="C3" offset="0" programID="D3C3" type="static">
        <phase duration="60" state="rrrrGGgGrrrrGGgG"/>
    </tlLogic>
    <tlLogic id="C3" offset="0" programID="C4C3" type="static">
        <phase duration="60" state="GGgGrrrrGGgGrrrr"/>
    </tlLogic>
    <tlLogic id="C3" offset="0" programID="B3C3" type="static">
        <phase duration="60" state="rrrrGGgGrrrrGGgG"/>
    </tlLogic>
    <timedEvent dest="localhost:9001" source="C3" type="SaveTLSStates"/>
    <tlLogic id="D3" offset="0" programID="C3D3" type="static">
        <phase duration="60" state="rrrrGGgGrrrrGGgG"/>
    </tlLogic>
    <tlLogic id="D3" offset="0" programID="D4D3" type="static">
        <phase duration="60" state="GGgGrrrrGGgGrrrr"/>
    </tlLogic>
    <tlLogic id="D3" offset="0" programID="D2D3" type="static">
        <phase duration="60" state="GGgGrrrrGGgGrrrr"/>
    </tlLogic>
    <tlLogic id="D3" offset="0" programID="E3D3" type="static">
        <phase duration="60" state="rrrrGGgGrrrrGGgG"/>
    </tlLogic>
    <timedEvent dest="localhost:9001" source="D3" type="SaveTLSStates"/>
    <tlLogic id="B4" offset="0" programID="A4B4" type="static">
        <phase duration="60" state="GrrrrrGGG"/>
    </tlLogic>
    <tlLogic id="B4" offset="0" programID="C4B4" type="static">
        <phase duration="60" state="GGGrrrrGr"/>
    </tlLogic>
    <tlLogic id="B4" offset="0" programID="B3B4" type="static">
        <phase duration="60" state="rrrGGGrrr"/>
    </tlLogic>
    <timedEvent dest="localhost:9001" source="B4" type="SaveTLSStates"/>
    <tlLogic id="E0" offset="0" programID="E1E0" type="static">
        <phase duration="60" state="GGrrrr"/>
    </tlLogic>
    <tlLogic id="E0" offset="0" programID="D0E0" type="static">
        <phase duration="60" state="rrrrGG"/>
    </tlLogic>
    <tlLogic id="E0" offset="0" programID="M0E0" type="static">
        <phase duration="60" state="rrGGGr"/>
    </tlLogic>
    <timedEvent dest="localhost:9001" source="E0" type="SaveTLSStates"/>
    <tlLogic id="B1" offset="0" programID="A1B1" type="static">
        <phase duration="60" state="rrrrGGgGrrrrGGgG"/>
    </tlLogic>
    <tlLogic id="B1" offset="0" programID="B2B1" type="static">
        <phase duration="60" state="GGgGrrrrGGgGrrrr"/>
    </tlLogic>
    <tlLogic id="B1" offset="0" programID="C1B1" type="static">
        <phase duration="60" state="rrrrGGgGrrrrGGgG"/>
    </tlLogic>
    <tlLogic id="B1" offset="0" programID="B0B1" type="static">
        <phase duration="60" state="GGgGrrrrGGgGrrrr"/>
    </tlLogic>
    <timedEvent dest="localhost:9001" source="B1" type="SaveTLSStates"/>
    <tlLogic id="D4" offset="0" programID="D3D4" type="static">
        <phase duration="60" state="rrrGGGrrr"/>
    </tlLogic>
    <tlLogic id="D4" offset="0" programID="C4D4" type="static">
        <phase duration="60" state="GrrrrrGGG"/>
    </tlLogic>
    <tlLogic id="D4" offset="0" programID="E4D4" type="static">
        <phase duration="60" state="GGGrrrrGr"/>
    </tlLogic>
    <timedEvent dest="localhost:9001" source="D4" type="SaveTLSStates"/>
    <tlLogic id="D2" offset="0" programID="C2D2" type="static">
        <phase duration="60" state="rrrrGGgGrrrrGGgG"/>
    </tlLogic>
    <tlLogic id="D2" offset="0" programID="D3D2" type="static">
        <phase duration="60" state="GGgGrrrrGGgGrrrr"/>
    </tlLogic>
    <tlLogic id="D2" offset="0" programID="D1D2" type="static">
        <phase duration="60" state="GGgGrrrrGGgGrrrr"/>
    </tlLogic>
    <tlLogic id="D2" offset="0" programID="E2D2" type="static">
        <phase duration="60" state="rrrrGGgGrrrrGGgG"/>
    </tlLogic>
    <timedEvent dest="localhost:9001" source="D2" type="SaveTLSStates"/>
    <tlLogic id="D1" offset="0" programID="C1D1" type="static">
        <phase duration="60" state="rrrrGGgGrrrrGGgG"/>
    </tlLogic>
    <tlLogic id="D1" offset="0" programID="D2D1" type="static">
        <phase duration="60" state="GGgGrrrrGGgGrrrr"/>
    </tlLogic>
    <tlLogic id="D1" offset="0" programID="D0D1" type="static">
        <phase duration="60" state="GGgGrrrrGGgGrrrr"/>
    </tlLogic>
    <tlLogic id="D1" offset="0" programID="E1D1" type="static">
        <phase duration="60" state="rrrrGGgGrrrrGGgG"/>
    </tlLogic>
    <timedEvent dest="localhost:9001" source="D1" type="SaveTLSStates"/>
    <tlLogic id="B0" offset="0" programID="A0B0" type="static">
        <phase duration="60" state="rrrrGrGGG"/>
    </tlLogic>
    <tlLogic id="B0" offset="0" programID="B1B0" type="static">
        <phase duration="60" state="GGGrrrrrr"/>
    </tlLogic>
    <tlLogic id="B0" offset="0" programID="C0B0" type="static">
        <phase duration="60" state="rrrGGGGrr"/>
    </tlLogic>
    <timedEvent dest="localhost:9001" source="B0" type="SaveTLSStates"/>
    <tlLogic id="E4" offset="0" programID="D4E4" type="static">
        <phase duration="60" state="GrrrGG"/>
    </tlLogic>
    <tlLogic id="E4" offset="0" programID="M4E4" type="static">
        <phase duration="60" state="GGrrrr"/>
    </tlLogic>
    <tlLogic id="E4" offset="0" programID="E3E4" type="static">
        <phase duration="60" state="rrGGrr"/>
    </tlLogic>
    <timedEvent dest="localhost:9001" source="E4" type="SaveTLSStates"/>
    <tlLogic id="A4" offset="0" programID="A3A4" type="static">
        <phase duration="60" state="rrGGrr"/>
    </tlLogic>
    <tlLogic id="A4" offset="0" programID="B4A4" type="static">
        <phase duration="60" state="GGrrrr"/>
    </tlLogic>
    <tlLogic id="A4" offset="0" programID="N4A4" type="static">
        <phase duration="60" state="GrrrGG"/>
    </tlLogic>
    <timedEvent dest="localhost:9001" source="A4" type="SaveTLSStates"/>
    <tlLogic id="E1" offset="0" programID="M1E1" type="static">
        <phase duration="60" state="rrrrGGgrrrrGGgG"/>
    </tlLogic>
    <tlLogic id="E1" offset="0" programID="D1E1" type="static">
        <phase duration="60" state="rrrrGGgrrrrGGgG"/>
    </tlLogic>
    <tlLogic id="E1" offset="0" programID="E0E1" type="static">
        <phase duration="60" state="GGgGrrrGGgGrrrr"/>
    </tlLogic>
    <tlLogic id="E1" offset="0" programID="E2E1" type="static">
        <phase duration="60" state="GGgGrrrGGgGrrrr"/>
    </tlLogic>
    <timedEvent dest="localhost:9001" source="E1" type="SaveTLSStates"/>
    <tlLogic id="E2" offset="0" programID="M2E2" type="static">
        <phase duration="60" state="rrrrGGgrrrrGGgG"/>
    </tlLogic>
    <tlLogic id="E2" offset="0" programID="D2E2" type="static">
        <phase duration="60" state="rrrrGGgrrrrGGgG"/>
    </tlLogic>
    <tlLogic id="E2" offset="0" programID="E1E2" type="static">
        <phase duration="60" state="GGgGrrrGGgGrrrr"/>
    </tlLogic>
    <tlLogic id="E2" offset="0" programID="E3E2" type="static">
        <phase duration="60" state="GGgGrrrGGgGrrrr"/>
    </tlLogic>
    <timedEvent dest="localhost:9001" source="E2" type="SaveTLSStates"/>
    <tlLogic id="E3" offset="0" programID="D3E3" type="static">
        <phase duration="60" state="rrrrGGgrrrrGGgG"/>
    </tlLogic>
    <tlLogic id="E3" offset="0" programID="M3E3" type="static">
        <phase duration="60" state="rrrrGGgrrrrGGgG"/>
    </tlLogic>
    <tlLogic id="E3" offset="0" programID="E2E3" type="static">
        <phase duration="60" state="GGgGrrrGGgGrrrr"/>
    </tlLogic>
    <tlLogic id="E3" offset="0" programID="E4E3" type="static">
        <phase duration="60" state="GGgGrrrGGgGrrrr"/>
    </tlLogic>
    <timedEvent dest="localhost:9001" source="E3" type="SaveTLSStates"/>
    <tlLogic id="A1" offset="0" programID="A0A1" type="static">
        <phase duration="60" state="GGgGrrrrGGgGrrr"/>
    </tlLogic>
    <tlLogic id="A1" offset="0" programID="B1A1" type="static">
        <phase duration="60" state="rrrrGGgGrrrrGGg"/>
    </tlLogic>
    <tlLogic id="A1" offset="0" programID="N1A1" type="static">
        <phase duration="60" state="rrrrGGgGrrrrGGg"/>
    </tlLogic>
    <tlLogic id="A1" offset="0" programID="A2A1" type="static">
        <phase duration="60" state="GGgGrrrrGGgGrrr"/>
    </tlLogic>
    <timedEvent dest="localhost:9001" source="A1" type="SaveTLSStates"/>
</additional>
