<?xml version="1.0" encoding="UTF-8"?>

<routes xmlns:xsi="http://www.w3.org/2001/XMLSchema-instance" xsi:noNamespaceSchemaLocation="http://sumo.dlr.de/xsd/routes_file.xsd">
    <vTypeDistribution id="passenger">
	<vType id="passenger#0" probability="0.25" width="1.8" length="4.3" maxSpeed="50" guiShape="passenger/sedan" minGap="2.5" accel="2.9" decel="4.5" height="1.5"/>
	<vType id="passenger#1" probability="0.25" width="1.8" length="4.3" maxSpeed="50" guiShape="passenger/hatchback" minGap="2.5" accel="2.9" decel="4.5" height="1.5"/>
	<vType id="passenger#2" probability="0.20" width="1.8" length="4.3" maxSpeed="50" guiShape="passenger/wagon" minGap="2.5" accel="2.9" decel="4.5" height="1.5"/>
	<vType id="passenger#3" probability="0.15" width="1.9" length="4.7" maxSpeed="50" guiShape="passenger/van" minGap="2.5" accel="2.9" decel="4.5" height="1.73"/>
	<vType id="passenger#4" probability="0.15" width="2.16" length="6.5" maxSpeed="50" guiShape="delivery" minGap="2.5" accel="2.9" decel="4.5" height="2.86"/>
    </vTypeDistribution>

    <vTypeDistribution id="motorcycle">
	<vType id="motorcycle#0" probability="0.15" width="1.8" length="2.2" maxSpeed="50" guiShape="motorcycle" minGap="2.5" accel="6" decel="4.5" height="1.5"/>
    </vTypeDistribution>

	<!-- from west to east -->
	<route id="n10_n21" edges="n10_n1 n1_n2 n2_n21" />
	<route id="n41_n30" edges="n41_n4 n4_n3 n3_n30" />

	<!-- from east to west -->
	<route id="n21_n10" edges="n21_n2 n2_n1 n1_n10" />
	<route id="n30_n41" edges="n30_n3 n3_n4 n4_n41" />

	<!-- from south to north -->
	<route id="n40_n11" edges="n40_n4 n4_n1 n1_n11" />
	<route id="n31_n20" edges="n31_n3 n3_n2 n2_n20" />

	<!-- from north to south -->
	<route id="n11_n40" edges="n11_n1 n1_n4 n4_n40" />
	<route id="n20_n31" edges="n20_n2 n2_n3 n3_n31" />

<!--	<vehicle id="" type="passenger" route="n10_n21" depart=""/> -->
<!--	<vehicle id="" type="passenger" route="n41_n30" depart=""/> -->

<!--	<vehicle id="" type="passenger" route="n21_n10" depart=""/> -->
<!--	<vehicle id="" type="passenger" route="n30_n41" depart=""/> -->

<!--	<vehicle id="" type="passenger" route="n40_n11" depart=""/> -->
<!--	<vehicle id="" type="passenger" route="n31_n20" depart=""/> -->

<!--	<vehicle id="" type="passenger" route="n11_n40" depart=""/> -->
<!--	<vehicle id="" type="passenger" route="n20_n31" depart=""/> -->


	<!-- left north-south --> 
	<vehicle id="26" type="passenger" route="n11_n40" depart="0"/>
	<vehicle id="29" type="passenger" route="n11_n40" depart="0"/>
	<vehicle id="27" type="passenger" route="n40_n11" depart="0"/>
	<vehicle id="30" type="passenger" route="n40_n11" depart="0"/>
	<vehicle id="31" type="passenger" route="n11_n40" depart="0"/>
	<vehicle id="33" type="passenger" route="n11_n40" depart="0"/>
	<vehicle id="32" type="passenger" route="n40_n11" depart="0"/>
	<vehicle id="34" type="passenger" route="n40_n11" depart="0"/>
	<vehicle id="35" type="passenger" route="n11_n40" depart="0"/>
	<vehicle id="37" type="passenger" route="n11_n40" depart="0"/>
	<vehicle id="36" type="passenger" route="n40_n11" depart="0"/>
	<vehicle id="38" type="passenger" route="n40_n11" depart="0"/>
	<vehicle id="39" type="passenger" route="n11_n40" depart="0"/>
	<vehicle id="41" type="passenger" route="n11_n40" depart="0"/>
	<vehicle id="40" type="passenger" route="n40_n11" depart="0"/>
	<vehicle id="42" type="passenger" route="n40_n11" depart="0"/>
	<vehicle id="43" type="passenger" route="n11_n40" depart="0"/>
	<vehicle id="45" type="passenger" route="n11_n40" depart="0"/>
	<vehicle id="44" type="passenger" route="n40_n11" depart="0"/>
	<vehicle id="46" type="passenger" route="n40_n11" depart="0"/>
	<vehicle id="47" type="passenger" route="n11_n40" depart="0"/>
	<vehicle id="49" type="passenger" route="n11_n40" depart="0"/>
	<vehicle id="48" type="passenger" route="n40_n11" depart="0"/>
	<vehicle id="50" type="passenger" route="n40_n11" depart="0"/>
	<vehicle id="51" type="passenger" route="n11_n40" depart="0"/>
	<vehicle id="53" type="passenger" route="n40_n11" depart="0"/>
	<vehicle id="52" type="passenger" route="n40_n11" depart="0"/>
	<vehicle id="54" type="passenger" route="n40_n11" depart="0"/>
	<vehicle id="55" type="passenger" route="n11_n40" depart="0"/>
	<vehicle id="57" type="passenger" route="n11_n40" depart="0"/>
	<vehicle id="56" type="passenger" route="n40_n11" depart="0"/>
	<vehicle id="58" type="passenger" route="n40_n11" depart="0"/>
	<vehicle id="59" type="passenger" route="n11_n40" depart="0"/>
	<vehicle id="61" type="passenger" route="n11_n40" depart="0"/>
	<vehicle id="60" type="passenger" route="n40_n11" depart="0"/>
	<vehicle id="62" type="passenger" route="n40_n11" depart="0"/>
	<vehicle id="63" type="passenger" route="n11_n40" depart="0"/>
	<vehicle id="65" type="passenger" route="n11_n40" depart="0"/>
	<vehicle id="67" type="passenger" route="n11_n40" depart="0"/>
	<vehicle id="69" type="passenger" route="n11_n40" depart="0"/>
	<vehicle id="64" type="passenger" route="n40_n11" depart="0"/>
	<vehicle id="66" type="passenger" route="n40_n11" depart="0"/>
	<vehicle id="68" type="passenger" route="n40_n11" depart="0"/>
	<vehicle id="70" type="passenger" route="n40_n11" depart="0"/>
	<vehicle id="71" type="passenger" route="n11_n40" depart="0"/>


	<!-- upper west-east -->
	<vehicle id="0" type="passenger" route="n10_n21" depart="10"/>

</routes>
