<additional>
<vType id="passengerSedan" maxSpeed="27" probability=".4" vClass="passenger" guiShape="passenger"/>
<vType id="passengerHatchback" maxSpeed="28" probability=".35" vClass="passenger" guiShape="passenger/hatchback"/>
<vType id="passengerVan" maxSpeed="25" probability=".2" vClass="passenger" guiShape="passenger/van"/>
<vType id="motorcycle" maxSpeed="25" probability=".05" vClass="motorcycle" guiShape="motorcycle"/>
</additional>